
---------- Begin Simulation Statistics ----------
final_tick                                   59498500                       # Number of ticks from beginning of simulation (restored from checkpoints and never reset)
host_inst_rate                                  51883                       # Simulator instruction rate (inst/s)
host_mem_usage                                 865952                       # Number of bytes of host memory used
host_op_rate                                    62669                       # Simulator op (including micro ops) rate (op/s)
host_seconds                                     0.45                       # Real time elapsed on the host
host_tick_rate                              131032243                       # Simulator tick rate (ticks/s)
sim_freq                                 1000000000000                       # Frequency of simulated ticks
sim_insts                                       23532                       # Number of instructions simulated
sim_ops                                         28450                       # Number of ops (including micro ops) simulated
sim_seconds                                  0.000059                       # Number of seconds simulated
sim_ticks                                    59498500                       # Number of ticks simulated
system.cpu.branchPred.BTBCorrect                    0                       # Number of correct BTB predictions (this stat may not work properly.
system.cpu.branchPred.BTBHitPct             58.688578                       # BTB Hit Percentage
system.cpu.branchPred.BTBHits                    3607                       # Number of BTB hits
system.cpu.branchPred.BTBLookups                 6146                       # Number of BTB lookups
system.cpu.branchPred.RASInCorrect                  3                       # Number of incorrect RAS predictions.
system.cpu.branchPred.condIncorrect              1642                       # Number of conditional branches incorrect
system.cpu.branchPred.condPredicted              9292                       # Number of conditional branches predicted
system.cpu.branchPred.indirectHits                 38                       # Number of indirect target hits.
system.cpu.branchPred.indirectLookups             397                       # Number of indirect predictor lookups.
system.cpu.branchPred.indirectMisses              359                       # Number of indirect misses.
system.cpu.branchPred.lookups                   12917                       # Number of BP lookups
system.cpu.branchPred.usedRAS                    1081                       # Number of times the RAS was used to get a target.
system.cpu.branchPredindirectMispredicted          103                       # Number of mispredicted indirect branches.
system.cpu.cc_regfile_reads                      8592                       # number of cc regfile reads
system.cpu.cc_regfile_writes                     8649                       # number of cc regfile writes
system.cpu.commit.amos                              0                       # Number of atomic instructions committed
system.cpu.commit.branchMispredicts              1183                       # The number of times a branch was mispredicted
system.cpu.commit.branches                       5605                       # Number of branches committed
system.cpu.commit.bw_lim_events                  1069                       # number cycles where commit BW limit reached
system.cpu.commit.commitNonSpecStalls              54                       # The number of times commit has been forced to stall to communicate backwards
system.cpu.commit.commitSquashedInsts           17497                       # The number of squashed insts skipped by commit
system.cpu.commit.committedInsts                23588                       # Number of instructions committed
system.cpu.commit.committedOps                  28506                       # Number of ops (including micro ops) committed
system.cpu.commit.committed_per_cycle::samples        43831                       # Number of insts commited each cycle
system.cpu.commit.committed_per_cycle::mean     0.650362                       # Number of insts commited each cycle
system.cpu.commit.committed_per_cycle::stdev     1.650854                       # Number of insts commited each cycle
system.cpu.commit.committed_per_cycle::underflows            0      0.00%      0.00% # Number of insts commited each cycle
system.cpu.commit.committed_per_cycle::0        34315     78.29%     78.29% # Number of insts commited each cycle
system.cpu.commit.committed_per_cycle::1         3552      8.10%     86.39% # Number of insts commited each cycle
system.cpu.commit.committed_per_cycle::2         2011      4.59%     90.98% # Number of insts commited each cycle
system.cpu.commit.committed_per_cycle::3         1106      2.52%     93.50% # Number of insts commited each cycle
system.cpu.commit.committed_per_cycle::4          636      1.45%     94.96% # Number of insts commited each cycle
system.cpu.commit.committed_per_cycle::5          539      1.23%     96.19% # Number of insts commited each cycle
system.cpu.commit.committed_per_cycle::6          398      0.91%     97.09% # Number of insts commited each cycle
system.cpu.commit.committed_per_cycle::7          205      0.47%     97.56% # Number of insts commited each cycle
system.cpu.commit.committed_per_cycle::8         1069      2.44%    100.00% # Number of insts commited each cycle
system.cpu.commit.committed_per_cycle::overflows            0      0.00%    100.00% # Number of insts commited each cycle
system.cpu.commit.committed_per_cycle::min_value            0                       # Number of insts commited each cycle
system.cpu.commit.committed_per_cycle::max_value            8                       # Number of insts commited each cycle
system.cpu.commit.committed_per_cycle::total        43831                       # Number of insts commited each cycle
system.cpu.commit.fp_insts                          0                       # Number of committed floating point instructions.
system.cpu.commit.function_calls                  490                       # Number of function calls committed.
system.cpu.commit.int_insts                     25886                       # Number of committed integer instructions.
system.cpu.commit.loads                          4020                       # Number of loads committed
system.cpu.commit.membars                          36                       # Number of memory barriers committed
system.cpu.commit.op_class_0::No_OpClass            7      0.02%      0.02% # Class of committed instruction
system.cpu.commit.op_class_0::IntAlu            19666     68.99%     69.01% # Class of committed instruction
system.cpu.commit.op_class_0::IntMult              42      0.15%     69.16% # Class of committed instruction
system.cpu.commit.op_class_0::IntDiv                3      0.01%     69.17% # Class of committed instruction
system.cpu.commit.op_class_0::FloatAdd              0      0.00%     69.17% # Class of committed instruction
system.cpu.commit.op_class_0::FloatCmp              0      0.00%     69.17% # Class of committed instruction
system.cpu.commit.op_class_0::FloatCvt              0      0.00%     69.17% # Class of committed instruction
system.cpu.commit.op_class_0::FloatMult             0      0.00%     69.17% # Class of committed instruction
system.cpu.commit.op_class_0::FloatMultAcc            0      0.00%     69.17% # Class of committed instruction
system.cpu.commit.op_class_0::FloatDiv              0      0.00%     69.17% # Class of committed instruction
system.cpu.commit.op_class_0::FloatMisc             0      0.00%     69.17% # Class of committed instruction
system.cpu.commit.op_class_0::FloatSqrt             0      0.00%     69.17% # Class of committed instruction
system.cpu.commit.op_class_0::SimdAdd              26      0.09%     69.26% # Class of committed instruction
system.cpu.commit.op_class_0::SimdAddAcc            0      0.00%     69.26% # Class of committed instruction
system.cpu.commit.op_class_0::SimdAlu              26      0.09%     69.35% # Class of committed instruction
system.cpu.commit.op_class_0::SimdCmp              28      0.10%     69.45% # Class of committed instruction
system.cpu.commit.op_class_0::SimdCvt               0      0.00%     69.45% # Class of committed instruction
system.cpu.commit.op_class_0::SimdMisc             30      0.11%     69.56% # Class of committed instruction
system.cpu.commit.op_class_0::SimdMult              0      0.00%     69.56% # Class of committed instruction
system.cpu.commit.op_class_0::SimdMultAcc            0      0.00%     69.56% # Class of committed instruction
system.cpu.commit.op_class_0::SimdShift             0      0.00%     69.56% # Class of committed instruction
system.cpu.commit.op_class_0::SimdShiftAcc            0      0.00%     69.56% # Class of committed instruction
system.cpu.commit.op_class_0::SimdDiv               0      0.00%     69.56% # Class of committed instruction
system.cpu.commit.op_class_0::SimdSqrt              0      0.00%     69.56% # Class of committed instruction
system.cpu.commit.op_class_0::SimdFloatAdd            0      0.00%     69.56% # Class of committed instruction
system.cpu.commit.op_class_0::SimdFloatAlu            0      0.00%     69.56% # Class of committed instruction
system.cpu.commit.op_class_0::SimdFloatCmp            0      0.00%     69.56% # Class of committed instruction
system.cpu.commit.op_class_0::SimdFloatCvt            0      0.00%     69.56% # Class of committed instruction
system.cpu.commit.op_class_0::SimdFloatDiv            0      0.00%     69.56% # Class of committed instruction
system.cpu.commit.op_class_0::SimdFloatMisc            0      0.00%     69.56% # Class of committed instruction
system.cpu.commit.op_class_0::SimdFloatMult            0      0.00%     69.56% # Class of committed instruction
system.cpu.commit.op_class_0::SimdFloatMultAcc            0      0.00%     69.56% # Class of committed instruction
system.cpu.commit.op_class_0::SimdFloatSqrt            0      0.00%     69.56% # Class of committed instruction
system.cpu.commit.op_class_0::SimdReduceAdd            0      0.00%     69.56% # Class of committed instruction
system.cpu.commit.op_class_0::SimdReduceAlu            0      0.00%     69.56% # Class of committed instruction
system.cpu.commit.op_class_0::SimdReduceCmp            0      0.00%     69.56% # Class of committed instruction
system.cpu.commit.op_class_0::SimdFloatReduceAdd            0      0.00%     69.56% # Class of committed instruction
system.cpu.commit.op_class_0::SimdFloatReduceCmp            0      0.00%     69.56% # Class of committed instruction
system.cpu.commit.op_class_0::SimdAes               0      0.00%     69.56% # Class of committed instruction
system.cpu.commit.op_class_0::SimdAesMix            0      0.00%     69.56% # Class of committed instruction
system.cpu.commit.op_class_0::SimdSha1Hash            0      0.00%     69.56% # Class of committed instruction
system.cpu.commit.op_class_0::SimdSha1Hash2            0      0.00%     69.56% # Class of committed instruction
system.cpu.commit.op_class_0::SimdSha256Hash            0      0.00%     69.56% # Class of committed instruction
system.cpu.commit.op_class_0::SimdSha256Hash2            0      0.00%     69.56% # Class of committed instruction
system.cpu.commit.op_class_0::SimdShaSigma2            0      0.00%     69.56% # Class of committed instruction
system.cpu.commit.op_class_0::SimdShaSigma3            0      0.00%     69.56% # Class of committed instruction
system.cpu.commit.op_class_0::SimdPredAlu            0      0.00%     69.56% # Class of committed instruction
system.cpu.commit.op_class_0::MemRead            4020     14.10%     83.66% # Class of committed instruction
system.cpu.commit.op_class_0::MemWrite           4658     16.34%    100.00% # Class of committed instruction
system.cpu.commit.op_class_0::FloatMemRead            0      0.00%    100.00% # Class of committed instruction
system.cpu.commit.op_class_0::FloatMemWrite            0      0.00%    100.00% # Class of committed instruction
system.cpu.commit.op_class_0::IprAccess             0      0.00%    100.00% # Class of committed instruction
system.cpu.commit.op_class_0::InstPrefetch            0      0.00%    100.00% # Class of committed instruction
system.cpu.commit.op_class_0::total             28506                       # Class of committed instruction
system.cpu.commit.refs                           8678                       # Number of memory references committed
system.cpu.commit.swp_count                         0                       # Number of s/w prefetches committed
system.cpu.commit.vec_insts                       413                       # Number of committed Vector instructions.
system.cpu.committedInsts                       23532                       # Number of Instructions Simulated
system.cpu.committedOps                         28450                       # Number of Ops (including micro ops) Simulated
system.cpu.cpi                               5.056859                       # CPI: Cycles Per Instruction
system.cpu.cpi_total                         5.056859                       # CPI: Total CPI of All Threads
system.cpu.decode.BlockedCycles                 13177                       # Number of cycles decode is blocked
system.cpu.decode.BranchMispred                   473                       # Number of times decode detected a branch misprediction
system.cpu.decode.BranchResolved                 3636                       # Number of times decode resolved a branch
system.cpu.decode.DecodedInsts                  53459                       # Number of instructions handled by decode
system.cpu.decode.IdleCycles                    22729                       # Number of cycles decode is idle
system.cpu.decode.RunCycles                      8699                       # Number of cycles decode is running
system.cpu.decode.SquashCycles                   1222                       # Number of cycles decode is squashing
system.cpu.decode.SquashedInsts                  1533                       # Number of squashed instructions handled by decode
system.cpu.decode.UnblockCycles                   899                       # Number of cycles decode is unblocking
system.cpu.dtb.accesses                             0                       # DTB accesses
system.cpu.dtb.align_faults                         0                       # Number of TLB faults due to alignment restrictions
system.cpu.dtb.domain_faults                        0                       # Number of TLB faults due to domain restrictions
system.cpu.dtb.flush_entries                        0                       # Number of entries that have been flushed from TLB
system.cpu.dtb.flush_tlb                            0                       # Number of times complete TLB was flushed
system.cpu.dtb.flush_tlb_asid                       0                       # Number of times TLB was flushed by ASID
system.cpu.dtb.flush_tlb_mva                        0                       # Number of times TLB was flushed by MVA
system.cpu.dtb.flush_tlb_mva_asid                   0                       # Number of times TLB was flushed by MVA & ASID
system.cpu.dtb.hits                                 0                       # DTB hits
system.cpu.dtb.inst_accesses                        0                       # ITB inst accesses
system.cpu.dtb.inst_hits                            0                       # ITB inst hits
system.cpu.dtb.inst_misses                          0                       # ITB inst misses
system.cpu.dtb.misses                               0                       # DTB misses
system.cpu.dtb.perms_faults                         0                       # Number of TLB faults due to permissions restrictions
system.cpu.dtb.prefetch_faults                      0                       # Number of TLB faults due to prefetch
system.cpu.dtb.read_accesses                        0                       # DTB read accesses
system.cpu.dtb.read_hits                            0                       # DTB read hits
system.cpu.dtb.read_misses                          0                       # DTB read misses
system.cpu.dtb.stage2_mmu.stage2_tlb.accesses            0                       # DTB accesses
system.cpu.dtb.stage2_mmu.stage2_tlb.align_faults            0                       # Number of TLB faults due to alignment restrictions
system.cpu.dtb.stage2_mmu.stage2_tlb.domain_faults            0                       # Number of TLB faults due to domain restrictions
system.cpu.dtb.stage2_mmu.stage2_tlb.flush_entries            0                       # Number of entries that have been flushed from TLB
system.cpu.dtb.stage2_mmu.stage2_tlb.flush_tlb            0                       # Number of times complete TLB was flushed
system.cpu.dtb.stage2_mmu.stage2_tlb.flush_tlb_asid            0                       # Number of times TLB was flushed by ASID
system.cpu.dtb.stage2_mmu.stage2_tlb.flush_tlb_mva            0                       # Number of times TLB was flushed by MVA
system.cpu.dtb.stage2_mmu.stage2_tlb.flush_tlb_mva_asid            0                       # Number of times TLB was flushed by MVA & ASID
system.cpu.dtb.stage2_mmu.stage2_tlb.hits            0                       # DTB hits
system.cpu.dtb.stage2_mmu.stage2_tlb.inst_accesses            0                       # ITB inst accesses
system.cpu.dtb.stage2_mmu.stage2_tlb.inst_hits            0                       # ITB inst hits
system.cpu.dtb.stage2_mmu.stage2_tlb.inst_misses            0                       # ITB inst misses
system.cpu.dtb.stage2_mmu.stage2_tlb.misses            0                       # DTB misses
system.cpu.dtb.stage2_mmu.stage2_tlb.perms_faults            0                       # Number of TLB faults due to permissions restrictions
system.cpu.dtb.stage2_mmu.stage2_tlb.prefetch_faults            0                       # Number of TLB faults due to prefetch
system.cpu.dtb.stage2_mmu.stage2_tlb.read_accesses            0                       # DTB read accesses
system.cpu.dtb.stage2_mmu.stage2_tlb.read_hits            0                       # DTB read hits
system.cpu.dtb.stage2_mmu.stage2_tlb.read_misses            0                       # DTB read misses
system.cpu.dtb.stage2_mmu.stage2_tlb.walker.walkRequestOrigin_Requested::Data            0                       # Table walker requests started/completed, data/inst
system.cpu.dtb.stage2_mmu.stage2_tlb.walker.walkRequestOrigin_Requested::Inst            0                       # Table walker requests started/completed, data/inst
system.cpu.dtb.stage2_mmu.stage2_tlb.walker.walkRequestOrigin_Requested::total            0                       # Table walker requests started/completed, data/inst
system.cpu.dtb.stage2_mmu.stage2_tlb.walker.walkRequestOrigin_Completed::Data            0                       # Table walker requests started/completed, data/inst
system.cpu.dtb.stage2_mmu.stage2_tlb.walker.walkRequestOrigin_Completed::Inst            0                       # Table walker requests started/completed, data/inst
system.cpu.dtb.stage2_mmu.stage2_tlb.walker.walkRequestOrigin_Completed::total            0                       # Table walker requests started/completed, data/inst
system.cpu.dtb.stage2_mmu.stage2_tlb.walker.walkRequestOrigin::total            0                       # Table walker requests started/completed, data/inst
system.cpu.dtb.stage2_mmu.stage2_tlb.walker.walks            0                       # Table walker walks requested
system.cpu.dtb.stage2_mmu.stage2_tlb.write_accesses            0                       # DTB write accesses
system.cpu.dtb.stage2_mmu.stage2_tlb.write_hits            0                       # DTB write hits
system.cpu.dtb.stage2_mmu.stage2_tlb.write_misses            0                       # DTB write misses
system.cpu.dtb.walker.walkRequestOrigin_Requested::Data            0                       # Table walker requests started/completed, data/inst
system.cpu.dtb.walker.walkRequestOrigin_Requested::Inst            0                       # Table walker requests started/completed, data/inst
system.cpu.dtb.walker.walkRequestOrigin_Requested::total            0                       # Table walker requests started/completed, data/inst
system.cpu.dtb.walker.walkRequestOrigin_Completed::Data            0                       # Table walker requests started/completed, data/inst
system.cpu.dtb.walker.walkRequestOrigin_Completed::Inst            0                       # Table walker requests started/completed, data/inst
system.cpu.dtb.walker.walkRequestOrigin_Completed::total            0                       # Table walker requests started/completed, data/inst
system.cpu.dtb.walker.walkRequestOrigin::total            0                       # Table walker requests started/completed, data/inst
system.cpu.dtb.walker.walks                         0                       # Table walker walks requested
system.cpu.dtb.write_accesses                       0                       # DTB write accesses
system.cpu.dtb.write_hits                           0                       # DTB write hits
system.cpu.dtb.write_misses                         0                       # DTB write misses
system.cpu.fetch.Branches                       12917                       # Number of branches that fetch encountered
system.cpu.fetch.CacheLines                      7277                       # Number of cache lines fetched
system.cpu.fetch.Cycles                         18430                       # Number of cycles fetch has run and was not squashing or blocked
system.cpu.fetch.IcacheSquashes                   983                       # Number of outstanding Icache misses that were squashed
system.cpu.fetch.IcacheWaitRetryStallCycles           96                       # Number of stall cycles due to full MSHR
system.cpu.fetch.Insts                          54377                       # Number of instructions fetch has processed
system.cpu.fetch.MiscStallCycles                   74                       # Number of cycles fetch has spent waiting on interrupts, or bad addresses, or out of MSHRs
system.cpu.fetch.SquashCycles                    3362                       # Number of cycles fetch has spent squashing
system.cpu.fetch.branchRate                  0.108548                       # Number of branch fetches per cycle
system.cpu.fetch.icacheStallCycles              26445                       # Number of cycles fetch is stalled on an Icache miss
system.cpu.fetch.predictedBranches               4726                       # Number of branches that fetch has predicted taken
system.cpu.fetch.rate                        0.456957                       # Number of inst fetches per cycle
system.cpu.fetch.rateDist::samples              46726                       # Number of instructions fetched each cycle (Total)
system.cpu.fetch.rateDist::mean              1.366563                       # Number of instructions fetched each cycle (Total)
system.cpu.fetch.rateDist::stdev             2.714894                       # Number of instructions fetched each cycle (Total)
system.cpu.fetch.rateDist::underflows               0      0.00%      0.00% # Number of instructions fetched each cycle (Total)
system.cpu.fetch.rateDist::0                    35120     75.16%     75.16% # Number of instructions fetched each cycle (Total)
system.cpu.fetch.rateDist::1                     1200      2.57%     77.73% # Number of instructions fetched each cycle (Total)
system.cpu.fetch.rateDist::2                     1364      2.92%     80.65% # Number of instructions fetched each cycle (Total)
system.cpu.fetch.rateDist::3                      700      1.50%     82.15% # Number of instructions fetched each cycle (Total)
system.cpu.fetch.rateDist::4                     1031      2.21%     84.35% # Number of instructions fetched each cycle (Total)
system.cpu.fetch.rateDist::5                      683      1.46%     85.82% # Number of instructions fetched each cycle (Total)
system.cpu.fetch.rateDist::6                      995      2.13%     87.94% # Number of instructions fetched each cycle (Total)
system.cpu.fetch.rateDist::7                      747      1.60%     89.54% # Number of instructions fetched each cycle (Total)
system.cpu.fetch.rateDist::8                     4886     10.46%    100.00% # Number of instructions fetched each cycle (Total)
system.cpu.fetch.rateDist::overflows                0      0.00%    100.00% # Number of instructions fetched each cycle (Total)
system.cpu.fetch.rateDist::min_value                0                       # Number of instructions fetched each cycle (Total)
system.cpu.fetch.rateDist::max_value                8                       # Number of instructions fetched each cycle (Total)
system.cpu.fetch.rateDist::total                46726                       # Number of instructions fetched each cycle (Total)
system.cpu.idleCycles                           72272                       # Total number of cycles that the CPU has spent unscheduled due to idling
system.cpu.iew.branchMispredicts                 1355                       # Number of branch mispredicts detected at execute
system.cpu.iew.exec_branches                     7265                       # Number of branches executed
system.cpu.iew.exec_nop                           123                       # number of nop insts executed
system.cpu.iew.exec_rate                     0.327291                       # Inst execution rate
system.cpu.iew.exec_refs                        11835                       # number of memory reference insts executed
system.cpu.iew.exec_stores                       5551                       # Number of stores executed
system.cpu.iew.exec_swp                             0                       # number of swp insts executed
system.cpu.iew.iewBlockCycles                    2380                       # Number of cycles IEW is blocking
system.cpu.iew.iewDispLoadInsts                  6957                       # Number of dispatched load instructions
system.cpu.iew.iewDispNonSpecInsts                 98                       # Number of dispatched non-speculative instructions
system.cpu.iew.iewDispSquashedInsts               239                       # Number of squashed instructions skipped by dispatch
system.cpu.iew.iewDispStoreInsts                 6930                       # Number of dispatched store instructions
system.cpu.iew.iewDispatchedInsts               46060                       # Number of instructions dispatched to IQ
system.cpu.iew.iewExecLoadInsts                  6284                       # Number of load instructions executed
system.cpu.iew.iewExecSquashedInsts              2080                       # Number of squashed instructions skipped in execute
system.cpu.iew.iewExecutedInsts                 38947                       # Number of executed instructions
system.cpu.iew.iewIQFullEvents                      8                       # Number of times the IQ has become full, causing a stall
system.cpu.iew.iewIdleCycles                        0                       # Number of cycles IEW is idle
system.cpu.iew.iewLSQFullEvents                  1290                       # Number of times the LSQ has become full, causing a stall
system.cpu.iew.iewSquashCycles                   1222                       # Number of cycles IEW is squashing
system.cpu.iew.iewUnblockCycles                  1298                       # Number of cycles IEW is unblocking
system.cpu.iew.lsq.thread0.blockedLoads             0                       # Number of blocked loads due to partial load-store forwarding
system.cpu.iew.lsq.thread0.cacheBlocked            83                       # Number of times an access to memory failed due to the cache being blocked
system.cpu.iew.lsq.thread0.forwLoads               78                       # Number of loads that had data forwarded from stores
system.cpu.iew.lsq.thread0.ignoredResponses            4                       # Number of memory responses ignored because the instruction is squashed
system.cpu.iew.lsq.thread0.invAddrLoads             0                       # Number of loads ignored due to an invalid address
system.cpu.iew.lsq.thread0.invAddrSwpfs             0                       # Number of software prefetches ignored due to an invalid address
system.cpu.iew.lsq.thread0.memOrderViolation           21                       # Number of memory ordering violations
system.cpu.iew.lsq.thread0.rescheduledLoads          100                       # Number of loads that were rescheduled
system.cpu.iew.lsq.thread0.squashedLoads         2937                       # Number of loads squashed
system.cpu.iew.lsq.thread0.squashedStores         2272                       # Number of stores squashed
system.cpu.iew.memOrderViolationEvents             21                       # Number of memory order violations
system.cpu.iew.predictedNotTakenIncorrect         1215                       # Number of branches that were predicted not taken incorrectly
system.cpu.iew.predictedTakenIncorrect            140                       # Number of branches that were predicted taken incorrectly
system.cpu.iew.wb_consumers                     31645                       # num instructions consuming a value
system.cpu.iew.wb_count                         37355                       # cumulative count of insts written-back
system.cpu.iew.wb_fanout                     0.580218                       # average fanout of values written-back
system.cpu.iew.wb_producers                     18361                       # num instructions producing a value
system.cpu.iew.wb_rate                       0.313913                       # insts written-back per cycle
system.cpu.iew.wb_sent                          38049                       # cumulative count of insts sent to commit
system.cpu.int_regfile_reads                    42741                       # number of integer regfile reads
system.cpu.int_regfile_writes                   26703                       # number of integer regfile writes
system.cpu.ipc                               0.197751                       # IPC: Instructions Per Cycle
system.cpu.ipc_total                         0.197751                       # IPC: Total IPC of All Threads
system.cpu.iq.FU_type_0::No_OpClass                 9      0.02%      0.02% # Type of FU issued
system.cpu.iq.FU_type_0::IntAlu                 28285     68.94%     68.96% # Type of FU issued
system.cpu.iq.FU_type_0::IntMult                   47      0.11%     69.08% # Type of FU issued
system.cpu.iq.FU_type_0::IntDiv                     4      0.01%     69.09% # Type of FU issued
system.cpu.iq.FU_type_0::FloatAdd                   0      0.00%     69.09% # Type of FU issued
system.cpu.iq.FU_type_0::FloatCmp                   0      0.00%     69.09% # Type of FU issued
system.cpu.iq.FU_type_0::FloatCvt                   0      0.00%     69.09% # Type of FU issued
system.cpu.iq.FU_type_0::FloatMult                  0      0.00%     69.09% # Type of FU issued
system.cpu.iq.FU_type_0::FloatMultAcc               0      0.00%     69.09% # Type of FU issued
system.cpu.iq.FU_type_0::FloatDiv                   0      0.00%     69.09% # Type of FU issued
system.cpu.iq.FU_type_0::FloatMisc                  0      0.00%     69.09% # Type of FU issued
system.cpu.iq.FU_type_0::FloatSqrt                  0      0.00%     69.09% # Type of FU issued
system.cpu.iq.FU_type_0::SimdAdd                   33      0.08%     69.17% # Type of FU issued
system.cpu.iq.FU_type_0::SimdAddAcc                 0      0.00%     69.17% # Type of FU issued
system.cpu.iq.FU_type_0::SimdAlu                   35      0.09%     69.25% # Type of FU issued
system.cpu.iq.FU_type_0::SimdCmp                   36      0.09%     69.34% # Type of FU issued
system.cpu.iq.FU_type_0::SimdCvt                    0      0.00%     69.34% # Type of FU issued
system.cpu.iq.FU_type_0::SimdMisc                  35      0.09%     69.43% # Type of FU issued
system.cpu.iq.FU_type_0::SimdMult                   0      0.00%     69.43% # Type of FU issued
system.cpu.iq.FU_type_0::SimdMultAcc                0      0.00%     69.43% # Type of FU issued
system.cpu.iq.FU_type_0::SimdShift                  0      0.00%     69.43% # Type of FU issued
system.cpu.iq.FU_type_0::SimdShiftAcc               0      0.00%     69.43% # Type of FU issued
system.cpu.iq.FU_type_0::SimdDiv                    0      0.00%     69.43% # Type of FU issued
system.cpu.iq.FU_type_0::SimdSqrt                   0      0.00%     69.43% # Type of FU issued
system.cpu.iq.FU_type_0::SimdFloatAdd               0      0.00%     69.43% # Type of FU issued
system.cpu.iq.FU_type_0::SimdFloatAlu               0      0.00%     69.43% # Type of FU issued
system.cpu.iq.FU_type_0::SimdFloatCmp               0      0.00%     69.43% # Type of FU issued
system.cpu.iq.FU_type_0::SimdFloatCvt               0      0.00%     69.43% # Type of FU issued
system.cpu.iq.FU_type_0::SimdFloatDiv               0      0.00%     69.43% # Type of FU issued
system.cpu.iq.FU_type_0::SimdFloatMisc              0      0.00%     69.43% # Type of FU issued
system.cpu.iq.FU_type_0::SimdFloatMult              0      0.00%     69.43% # Type of FU issued
system.cpu.iq.FU_type_0::SimdFloatMultAcc            0      0.00%     69.43% # Type of FU issued
system.cpu.iq.FU_type_0::SimdFloatSqrt              0      0.00%     69.43% # Type of FU issued
system.cpu.iq.FU_type_0::SimdReduceAdd              0      0.00%     69.43% # Type of FU issued
system.cpu.iq.FU_type_0::SimdReduceAlu              0      0.00%     69.43% # Type of FU issued
system.cpu.iq.FU_type_0::SimdReduceCmp              0      0.00%     69.43% # Type of FU issued
system.cpu.iq.FU_type_0::SimdFloatReduceAdd            0      0.00%     69.43% # Type of FU issued
system.cpu.iq.FU_type_0::SimdFloatReduceCmp            0      0.00%     69.43% # Type of FU issued
system.cpu.iq.FU_type_0::SimdAes                    0      0.00%     69.43% # Type of FU issued
system.cpu.iq.FU_type_0::SimdAesMix                 0      0.00%     69.43% # Type of FU issued
system.cpu.iq.FU_type_0::SimdSha1Hash               0      0.00%     69.43% # Type of FU issued
system.cpu.iq.FU_type_0::SimdSha1Hash2              0      0.00%     69.43% # Type of FU issued
system.cpu.iq.FU_type_0::SimdSha256Hash             0      0.00%     69.43% # Type of FU issued
system.cpu.iq.FU_type_0::SimdSha256Hash2            0      0.00%     69.43% # Type of FU issued
system.cpu.iq.FU_type_0::SimdShaSigma2              0      0.00%     69.43% # Type of FU issued
system.cpu.iq.FU_type_0::SimdShaSigma3              0      0.00%     69.43% # Type of FU issued
system.cpu.iq.FU_type_0::SimdPredAlu                0      0.00%     69.43% # Type of FU issued
system.cpu.iq.FU_type_0::MemRead                 6676     16.27%     85.70% # Type of FU issued
system.cpu.iq.FU_type_0::MemWrite                5867     14.30%    100.00% # Type of FU issued
system.cpu.iq.FU_type_0::FloatMemRead               0      0.00%    100.00% # Type of FU issued
system.cpu.iq.FU_type_0::FloatMemWrite              0      0.00%    100.00% # Type of FU issued
system.cpu.iq.FU_type_0::IprAccess                  0      0.00%    100.00% # Type of FU issued
system.cpu.iq.FU_type_0::InstPrefetch               0      0.00%    100.00% # Type of FU issued
system.cpu.iq.FU_type_0::total                  41027                       # Type of FU issued
system.cpu.iq.fp_alu_accesses                       0                       # Number of floating point alu accesses
system.cpu.iq.fp_inst_queue_reads                   0                       # Number of floating instruction queue reads
system.cpu.iq.fp_inst_queue_wakeup_accesses            0                       # Number of floating instruction queue wakeup accesses
system.cpu.iq.fp_inst_queue_writes                  0                       # Number of floating instruction queue writes
system.cpu.iq.fu_busy_cnt                         542                       # FU busy when requested
system.cpu.iq.fu_busy_rate                   0.013211                       # FU busy rate (busy events/executed inst)
system.cpu.iq.fu_full::No_OpClass                   0      0.00%      0.00% # attempts to use FU when none available
system.cpu.iq.fu_full::IntAlu                     181     33.39%     33.39% # attempts to use FU when none available
system.cpu.iq.fu_full::IntMult                      0      0.00%     33.39% # attempts to use FU when none available
system.cpu.iq.fu_full::IntDiv                       0      0.00%     33.39% # attempts to use FU when none available
system.cpu.iq.fu_full::FloatAdd                     0      0.00%     33.39% # attempts to use FU when none available
system.cpu.iq.fu_full::FloatCmp                     0      0.00%     33.39% # attempts to use FU when none available
system.cpu.iq.fu_full::FloatCvt                     0      0.00%     33.39% # attempts to use FU when none available
system.cpu.iq.fu_full::FloatMult                    0      0.00%     33.39% # attempts to use FU when none available
system.cpu.iq.fu_full::FloatMultAcc                 0      0.00%     33.39% # attempts to use FU when none available
system.cpu.iq.fu_full::FloatDiv                     0      0.00%     33.39% # attempts to use FU when none available
system.cpu.iq.fu_full::FloatMisc                    0      0.00%     33.39% # attempts to use FU when none available
system.cpu.iq.fu_full::FloatSqrt                    0      0.00%     33.39% # attempts to use FU when none available
system.cpu.iq.fu_full::SimdAdd                      0      0.00%     33.39% # attempts to use FU when none available
system.cpu.iq.fu_full::SimdAddAcc                   0      0.00%     33.39% # attempts to use FU when none available
system.cpu.iq.fu_full::SimdAlu                      1      0.18%     33.58% # attempts to use FU when none available
system.cpu.iq.fu_full::SimdCmp                      1      0.18%     33.76% # attempts to use FU when none available
system.cpu.iq.fu_full::SimdCvt                      0      0.00%     33.76% # attempts to use FU when none available
system.cpu.iq.fu_full::SimdMisc                     0      0.00%     33.76% # attempts to use FU when none available
system.cpu.iq.fu_full::SimdMult                     0      0.00%     33.76% # attempts to use FU when none available
system.cpu.iq.fu_full::SimdMultAcc                  0      0.00%     33.76% # attempts to use FU when none available
system.cpu.iq.fu_full::SimdShift                    0      0.00%     33.76% # attempts to use FU when none available
system.cpu.iq.fu_full::SimdShiftAcc                 0      0.00%     33.76% # attempts to use FU when none available
system.cpu.iq.fu_full::SimdDiv                      0      0.00%     33.76% # attempts to use FU when none available
system.cpu.iq.fu_full::SimdSqrt                     0      0.00%     33.76% # attempts to use FU when none available
system.cpu.iq.fu_full::SimdFloatAdd                 0      0.00%     33.76% # attempts to use FU when none available
system.cpu.iq.fu_full::SimdFloatAlu                 0      0.00%     33.76% # attempts to use FU when none available
system.cpu.iq.fu_full::SimdFloatCmp                 0      0.00%     33.76% # attempts to use FU when none available
system.cpu.iq.fu_full::SimdFloatCvt                 0      0.00%     33.76% # attempts to use FU when none available
system.cpu.iq.fu_full::SimdFloatDiv                 0      0.00%     33.76% # attempts to use FU when none available
system.cpu.iq.fu_full::SimdFloatMisc                0      0.00%     33.76% # attempts to use FU when none available
system.cpu.iq.fu_full::SimdFloatMult                0      0.00%     33.76% # attempts to use FU when none available
system.cpu.iq.fu_full::SimdFloatMultAcc             0      0.00%     33.76% # attempts to use FU when none available
system.cpu.iq.fu_full::SimdFloatSqrt                0      0.00%     33.76% # attempts to use FU when none available
system.cpu.iq.fu_full::SimdReduceAdd                0      0.00%     33.76% # attempts to use FU when none available
system.cpu.iq.fu_full::SimdReduceAlu                0      0.00%     33.76% # attempts to use FU when none available
system.cpu.iq.fu_full::SimdReduceCmp                0      0.00%     33.76% # attempts to use FU when none available
system.cpu.iq.fu_full::SimdFloatReduceAdd            0      0.00%     33.76% # attempts to use FU when none available
system.cpu.iq.fu_full::SimdFloatReduceCmp            0      0.00%     33.76% # attempts to use FU when none available
system.cpu.iq.fu_full::SimdAes                      0      0.00%     33.76% # attempts to use FU when none available
system.cpu.iq.fu_full::SimdAesMix                   0      0.00%     33.76% # attempts to use FU when none available
system.cpu.iq.fu_full::SimdSha1Hash                 0      0.00%     33.76% # attempts to use FU when none available
system.cpu.iq.fu_full::SimdSha1Hash2                0      0.00%     33.76% # attempts to use FU when none available
system.cpu.iq.fu_full::SimdSha256Hash               0      0.00%     33.76% # attempts to use FU when none available
system.cpu.iq.fu_full::SimdSha256Hash2              0      0.00%     33.76% # attempts to use FU when none available
system.cpu.iq.fu_full::SimdShaSigma2                0      0.00%     33.76% # attempts to use FU when none available
system.cpu.iq.fu_full::SimdShaSigma3                0      0.00%     33.76% # attempts to use FU when none available
system.cpu.iq.fu_full::SimdPredAlu                  0      0.00%     33.76% # attempts to use FU when none available
system.cpu.iq.fu_full::MemRead                    119     21.96%     55.72% # attempts to use FU when none available
system.cpu.iq.fu_full::MemWrite                   240     44.28%    100.00% # attempts to use FU when none available
system.cpu.iq.fu_full::FloatMemRead                 0      0.00%    100.00% # attempts to use FU when none available
system.cpu.iq.fu_full::FloatMemWrite                0      0.00%    100.00% # attempts to use FU when none available
system.cpu.iq.fu_full::IprAccess                    0      0.00%    100.00% # attempts to use FU when none available
system.cpu.iq.fu_full::InstPrefetch                 0      0.00%    100.00% # attempts to use FU when none available
system.cpu.iq.int_alu_accesses                  40920                       # Number of integer alu accesses
system.cpu.iq.int_inst_queue_reads             128166                       # Number of integer instruction queue reads
system.cpu.iq.int_inst_queue_wakeup_accesses        36834                       # Number of integer instruction queue wakeup accesses
system.cpu.iq.int_inst_queue_writes             62413                       # Number of integer instruction queue writes
system.cpu.iq.iqInstsAdded                      45839                       # Number of instructions added to the IQ (excludes non-spec)
system.cpu.iq.iqInstsIssued                     41027                       # Number of instructions issued
system.cpu.iq.iqNonSpecInstsAdded                  98                       # Number of non-speculative instructions added to the IQ
system.cpu.iq.iqSquashedInstsExamined           17486                       # Number of squashed instructions iterated over during squash; mainly for profiling
system.cpu.iq.iqSquashedInstsIssued               173                       # Number of squashed instructions issued
system.cpu.iq.iqSquashedNonSpecRemoved             44                       # Number of squashed non-spec instructions that were removed
system.cpu.iq.iqSquashedOperandsExamined        11727                       # Number of squashed operands that are examined and possibly removed from graph
system.cpu.iq.issued_per_cycle::samples         46726                       # Number of insts issued each cycle
system.cpu.iq.issued_per_cycle::mean         0.878034                       # Number of insts issued each cycle
system.cpu.iq.issued_per_cycle::stdev        1.699463                       # Number of insts issued each cycle
system.cpu.iq.issued_per_cycle::underflows            0      0.00%      0.00% # Number of insts issued each cycle
system.cpu.iq.issued_per_cycle::0               33277     71.22%     71.22% # Number of insts issued each cycle
system.cpu.iq.issued_per_cycle::1                3499      7.49%     78.71% # Number of insts issued each cycle
system.cpu.iq.issued_per_cycle::2                2728      5.84%     84.54% # Number of insts issued each cycle
system.cpu.iq.issued_per_cycle::3                2358      5.05%     89.59% # Number of insts issued each cycle
system.cpu.iq.issued_per_cycle::4                1853      3.97%     93.56% # Number of insts issued each cycle
system.cpu.iq.issued_per_cycle::5                1474      3.15%     96.71% # Number of insts issued each cycle
system.cpu.iq.issued_per_cycle::6                 837      1.79%     98.50% # Number of insts issued each cycle
system.cpu.iq.issued_per_cycle::7                 406      0.87%     99.37% # Number of insts issued each cycle
system.cpu.iq.issued_per_cycle::8                 294      0.63%    100.00% # Number of insts issued each cycle
system.cpu.iq.issued_per_cycle::overflows            0      0.00%    100.00% # Number of insts issued each cycle
system.cpu.iq.issued_per_cycle::min_value            0                       # Number of insts issued each cycle
system.cpu.iq.issued_per_cycle::max_value            8                       # Number of insts issued each cycle
system.cpu.iq.issued_per_cycle::total           46726                       # Number of insts issued each cycle
system.cpu.iq.rate                           0.344771                       # Inst issue rate
system.cpu.iq.vec_alu_accesses                    640                       # Number of vector alu accesses
system.cpu.iq.vec_inst_queue_reads               1329                       # Number of vector instruction queue reads
system.cpu.iq.vec_inst_queue_wakeup_accesses          521                       # Number of vector instruction queue wakeup accesses
system.cpu.iq.vec_inst_queue_writes              1031                       # Number of vector instruction queue writes
system.cpu.itb.accesses                             0                       # DTB accesses
system.cpu.itb.align_faults                         0                       # Number of TLB faults due to alignment restrictions
system.cpu.itb.domain_faults                        0                       # Number of TLB faults due to domain restrictions
system.cpu.itb.flush_entries                        0                       # Number of entries that have been flushed from TLB
system.cpu.itb.flush_tlb                            0                       # Number of times complete TLB was flushed
system.cpu.itb.flush_tlb_asid                       0                       # Number of times TLB was flushed by ASID
system.cpu.itb.flush_tlb_mva                        0                       # Number of times TLB was flushed by MVA
system.cpu.itb.flush_tlb_mva_asid                   0                       # Number of times TLB was flushed by MVA & ASID
system.cpu.itb.hits                                 0                       # DTB hits
system.cpu.itb.inst_accesses                        0                       # ITB inst accesses
system.cpu.itb.inst_hits                            0                       # ITB inst hits
system.cpu.itb.inst_misses                          0                       # ITB inst misses
system.cpu.itb.misses                               0                       # DTB misses
system.cpu.itb.perms_faults                         0                       # Number of TLB faults due to permissions restrictions
system.cpu.itb.prefetch_faults                      0                       # Number of TLB faults due to prefetch
system.cpu.itb.read_accesses                        0                       # DTB read accesses
system.cpu.itb.read_hits                            0                       # DTB read hits
system.cpu.itb.read_misses                          0                       # DTB read misses
system.cpu.itb.stage2_mmu.stage2_tlb.accesses            0                       # DTB accesses
system.cpu.itb.stage2_mmu.stage2_tlb.align_faults            0                       # Number of TLB faults due to alignment restrictions
system.cpu.itb.stage2_mmu.stage2_tlb.domain_faults            0                       # Number of TLB faults due to domain restrictions
system.cpu.itb.stage2_mmu.stage2_tlb.flush_entries            0                       # Number of entries that have been flushed from TLB
system.cpu.itb.stage2_mmu.stage2_tlb.flush_tlb            0                       # Number of times complete TLB was flushed
system.cpu.itb.stage2_mmu.stage2_tlb.flush_tlb_asid            0                       # Number of times TLB was flushed by ASID
system.cpu.itb.stage2_mmu.stage2_tlb.flush_tlb_mva            0                       # Number of times TLB was flushed by MVA
system.cpu.itb.stage2_mmu.stage2_tlb.flush_tlb_mva_asid            0                       # Number of times TLB was flushed by MVA & ASID
system.cpu.itb.stage2_mmu.stage2_tlb.hits            0                       # DTB hits
system.cpu.itb.stage2_mmu.stage2_tlb.inst_accesses            0                       # ITB inst accesses
system.cpu.itb.stage2_mmu.stage2_tlb.inst_hits            0                       # ITB inst hits
system.cpu.itb.stage2_mmu.stage2_tlb.inst_misses            0                       # ITB inst misses
system.cpu.itb.stage2_mmu.stage2_tlb.misses            0                       # DTB misses
system.cpu.itb.stage2_mmu.stage2_tlb.perms_faults            0                       # Number of TLB faults due to permissions restrictions
system.cpu.itb.stage2_mmu.stage2_tlb.prefetch_faults            0                       # Number of TLB faults due to prefetch
system.cpu.itb.stage2_mmu.stage2_tlb.read_accesses            0                       # DTB read accesses
system.cpu.itb.stage2_mmu.stage2_tlb.read_hits            0                       # DTB read hits
system.cpu.itb.stage2_mmu.stage2_tlb.read_misses            0                       # DTB read misses
system.cpu.itb.stage2_mmu.stage2_tlb.walker.walkRequestOrigin_Requested::Data            0                       # Table walker requests started/completed, data/inst
system.cpu.itb.stage2_mmu.stage2_tlb.walker.walkRequestOrigin_Requested::Inst            0                       # Table walker requests started/completed, data/inst
system.cpu.itb.stage2_mmu.stage2_tlb.walker.walkRequestOrigin_Requested::total            0                       # Table walker requests started/completed, data/inst
system.cpu.itb.stage2_mmu.stage2_tlb.walker.walkRequestOrigin_Completed::Data            0                       # Table walker requests started/completed, data/inst
system.cpu.itb.stage2_mmu.stage2_tlb.walker.walkRequestOrigin_Completed::Inst            0                       # Table walker requests started/completed, data/inst
system.cpu.itb.stage2_mmu.stage2_tlb.walker.walkRequestOrigin_Completed::total            0                       # Table walker requests started/completed, data/inst
system.cpu.itb.stage2_mmu.stage2_tlb.walker.walkRequestOrigin::total            0                       # Table walker requests started/completed, data/inst
system.cpu.itb.stage2_mmu.stage2_tlb.walker.walks            0                       # Table walker walks requested
system.cpu.itb.stage2_mmu.stage2_tlb.write_accesses            0                       # DTB write accesses
system.cpu.itb.stage2_mmu.stage2_tlb.write_hits            0                       # DTB write hits
system.cpu.itb.stage2_mmu.stage2_tlb.write_misses            0                       # DTB write misses
system.cpu.itb.walker.walkRequestOrigin_Requested::Data            0                       # Table walker requests started/completed, data/inst
system.cpu.itb.walker.walkRequestOrigin_Requested::Inst            0                       # Table walker requests started/completed, data/inst
system.cpu.itb.walker.walkRequestOrigin_Requested::total            0                       # Table walker requests started/completed, data/inst
system.cpu.itb.walker.walkRequestOrigin_Completed::Data            0                       # Table walker requests started/completed, data/inst
system.cpu.itb.walker.walkRequestOrigin_Completed::Inst            0                       # Table walker requests started/completed, data/inst
system.cpu.itb.walker.walkRequestOrigin_Completed::total            0                       # Table walker requests started/completed, data/inst
system.cpu.itb.walker.walkRequestOrigin::total            0                       # Table walker requests started/completed, data/inst
system.cpu.itb.walker.walks                         0                       # Table walker walks requested
system.cpu.itb.write_accesses                       0                       # DTB write accesses
system.cpu.itb.write_hits                           0                       # DTB write hits
system.cpu.itb.write_misses                         0                       # DTB write misses
system.cpu.memDep0.conflictingLoads                25                       # Number of conflicting loads.
system.cpu.memDep0.conflictingStores               29                       # Number of conflicting stores.
system.cpu.memDep0.insertedLoads                 6957                       # Number of loads inserted to the mem dependence unit.
system.cpu.memDep0.insertedStores                6930                       # Number of stores inserted to the mem dependence unit.
system.cpu.misc_regfile_reads                   30656                       # number of misc regfile reads
system.cpu.misc_regfile_writes                    145                       # number of misc regfile writes
system.cpu.numCycles                           118998                       # number of cpu cycles simulated
system.cpu.numWorkItemsCompleted                    0                       # number of work items this cpu completed
system.cpu.numWorkItemsStarted                      0                       # number of work items this cpu started
system.cpu.rename.BlockCycles                    3958                       # Number of cycles rename is blocking
system.cpu.rename.CommittedMaps                 26781                       # Number of HB maps that are committed
system.cpu.rename.IQFullEvents                    167                       # Number of times rename has blocked due to IQ full
system.cpu.rename.IdleCycles                    23680                       # Number of cycles rename is idle
system.cpu.rename.LQFullEvents                    125                       # Number of times rename has blocked due to LQ full
system.cpu.rename.ROBFullEvents                     9                       # Number of times rename has blocked due to ROB full
system.cpu.rename.RenameLookups                 70312                       # Number of register rename lookups that rename has made
system.cpu.rename.RenamedInsts                  49788                       # Number of instructions processed by rename
system.cpu.rename.RenamedOperands               46282                       # Number of destination operands rename has renamed
system.cpu.rename.RunCycles                      8614                       # Number of cycles rename is running
system.cpu.rename.SQFullEvents                   1049                       # Number of times rename has blocked due to SQ full
system.cpu.rename.SquashCycles                   1222                       # Number of cycles rename is squashing
system.cpu.rename.UnblockCycles                  1685                       # Number of cycles rename is unblocking
system.cpu.rename.UndoneMaps                    19501                       # Number of HB maps that are undone due to squashing
system.cpu.rename.int_rename_lookups            55092                       # Number of integer rename lookups
system.cpu.rename.serializeStallCycles           7567                       # count of cycles rename stalled for serializing inst
system.cpu.rename.serializingInsts                382                       # count of serializing insts renamed
system.cpu.rename.skidInsts                      3538                       # count of insts added to the skid buffer
system.cpu.rename.tempSerializingInsts            101                       # count of temporary serializing insts renamed
system.cpu.rename.vec_rename_lookups              821                       # Number of vector rename lookups
system.cpu.rob.rob_reads                        88479                       # The number of ROB reads
system.cpu.rob.rob_writes                       94916                       # The number of ROB writes
system.cpu.timesIdled                             719                       # Number of times that the entire CPU went into an idle state and unscheduled itself
system.cpu.vec_regfile_reads                      587                       # number of vector regfile reads
system.cpu.vec_regfile_writes                     154                       # number of vector regfile writes
system.cpu.workload.numSyscalls                    17                       # Number of system calls
system.membus.snoop_filter.hit_multi_requests            0                       # Number of requests hitting in the snoop filter with multiple (>1) holders of the requested data.
system.membus.snoop_filter.hit_multi_snoops            0                       # Number of snoops hitting in the snoop filter with multiple (>1) holders of the requested data.
system.membus.snoop_filter.hit_single_requests            0                       # Number of requests hitting in the snoop filter with a single holder of the requested data.
system.membus.snoop_filter.hit_single_snoops            0                       # Number of snoops hitting in the snoop filter with a single holder of the requested data.
system.membus.snoop_filter.tot_requests          1262                       # Total number of requests made to the snoop filter.
system.membus.snoop_filter.tot_snoops               0                       # Total number of snoops made to the snoop filter.
system.tol2bus.snoop_filter.hit_multi_requests            1                       # Number of requests hitting in the snoop filter with multiple (>1) holders of the requested data.
system.tol2bus.snoop_filter.hit_multi_snoops            0                       # Number of snoops hitting in the snoop filter with multiple (>1) holders of the requested data.
system.tol2bus.snoop_filter.hit_single_requests          819                       # Number of requests hitting in the snoop filter with a single holder of the requested data.
system.tol2bus.snoop_filter.hit_single_snoops            0                       # Number of snoops hitting in the snoop filter with a single holder of the requested data.
system.tol2bus.snoop_filter.tot_requests         2259                       # Total number of requests made to the snoop filter.
system.tol2bus.snoop_filter.tot_snoops              0                       # Total number of snoops made to the snoop filter.
system.membus.trans_dist::ReadResp               1037                       # Transaction distribution
system.membus.trans_dist::ReadExReq               168                       # Transaction distribution
system.membus.trans_dist::ReadExResp              168                       # Transaction distribution
system.membus.trans_dist::ReadSharedReq          1038                       # Transaction distribution
system.membus.trans_dist::InvalidateReq            56                       # Transaction distribution
system.membus.pkt_count_system.l2.mem_side::system.mem_ctrls.port         2467                       # Packet count per connected master and slave (bytes)
system.membus.pkt_count::total                   2467                       # Packet count per connected master and slave (bytes)
system.membus.pkt_size_system.l2.mem_side::system.mem_ctrls.port        77120                       # Cumulative packet size per connected master and slave (bytes)
system.membus.pkt_size::total                   77120                       # Cumulative packet size per connected master and slave (bytes)
system.membus.snoops                                0                       # Total snoops (count)
system.membus.snoopTraffic                          0                       # Total snoop traffic (bytes)
system.membus.snoop_fanout::samples              1262                       # Request fanout histogram
system.membus.snoop_fanout::mean                    0                       # Request fanout histogram
system.membus.snoop_fanout::stdev                   0                       # Request fanout histogram
system.membus.snoop_fanout::underflows              0      0.00%      0.00% # Request fanout histogram
system.membus.snoop_fanout::0                    1262    100.00%    100.00% # Request fanout histogram
system.membus.snoop_fanout::1                       0      0.00%    100.00% # Request fanout histogram
system.membus.snoop_fanout::overflows               0      0.00%    100.00% # Request fanout histogram
system.membus.snoop_fanout::min_value               0                       # Request fanout histogram
system.membus.snoop_fanout::max_value               0                       # Request fanout histogram
system.membus.snoop_fanout::total                1262                       # Request fanout histogram
system.membus.reqLayer0.occupancy             1551500                       # Layer occupancy (ticks)
system.membus.reqLayer0.utilization               2.6                       # Layer utilization (%)
system.membus.respLayer1.occupancy            6374250                       # Layer occupancy (ticks)
system.membus.respLayer1.utilization             10.7                       # Layer utilization (%)
system.membus.power_state.pwrStateResidencyTicks::UNDEFINED     59498500                       # Cumulative time (in ticks) in various power states
system.tol2bus.trans_dist::ReadResp              1217                       # Transaction distribution
system.tol2bus.trans_dist::WritebackClean          814                       # Transaction distribution
system.tol2bus.trans_dist::CleanEvict               3                       # Transaction distribution
system.tol2bus.trans_dist::ReadExReq              168                       # Transaction distribution
system.tol2bus.trans_dist::ReadExResp             168                       # Transaction distribution
system.tol2bus.trans_dist::ReadCleanReq          1071                       # Transaction distribution
system.tol2bus.trans_dist::ReadSharedReq          147                       # Transaction distribution
system.tol2bus.trans_dist::InvalidateReq           56                       # Transaction distribution
system.tol2bus.trans_dist::InvalidateResp           56                       # Transaction distribution
system.tol2bus.pkt_count_system.cpu.icache.mem_side::system.l2.cpu_side         2955                       # Packet count per connected master and slave (bytes)
system.tol2bus.pkt_count_system.cpu.dcache.mem_side::system.l2.cpu_side          745                       # Packet count per connected master and slave (bytes)
system.tol2bus.pkt_count::total                  3700                       # Packet count per connected master and slave (bytes)
system.tol2bus.pkt_size_system.cpu.icache.mem_side::system.l2.cpu_side       120576                       # Cumulative packet size per connected master and slave (bytes)
system.tol2bus.pkt_size_system.cpu.dcache.mem_side::system.l2.cpu_side        20160                       # Cumulative packet size per connected master and slave (bytes)
system.tol2bus.pkt_size::total                 140736                       # Cumulative packet size per connected master and slave (bytes)
system.tol2bus.snoops                               0                       # Total snoops (count)
system.tol2bus.snoopTraffic                         0                       # Total snoop traffic (bytes)
system.tol2bus.snoop_fanout::samples             1442                       # Request fanout histogram
system.tol2bus.snoop_fanout::mean            0.002080                       # Request fanout histogram
system.tol2bus.snoop_fanout::stdev           0.045580                       # Request fanout histogram
system.tol2bus.snoop_fanout::underflows             0      0.00%      0.00% # Request fanout histogram
system.tol2bus.snoop_fanout::0                   1439     99.79%     99.79% # Request fanout histogram
system.tol2bus.snoop_fanout::1                      3      0.21%    100.00% # Request fanout histogram
system.tol2bus.snoop_fanout::2                      0      0.00%    100.00% # Request fanout histogram
system.tol2bus.snoop_fanout::overflows              0      0.00%    100.00% # Request fanout histogram
system.tol2bus.snoop_fanout::min_value              0                       # Request fanout histogram
system.tol2bus.snoop_fanout::max_value              1                       # Request fanout histogram
system.tol2bus.snoop_fanout::total               1442                       # Request fanout histogram
system.tol2bus.reqLayer0.occupancy            1943500                       # Layer occupancy (ticks)
system.tol2bus.reqLayer0.utilization              3.3                       # Layer utilization (%)
system.tol2bus.respLayer1.occupancy            500999                       # Layer occupancy (ticks)
system.tol2bus.respLayer1.utilization             0.8                       # Layer utilization (%)
system.tol2bus.respLayer0.occupancy           1605000                       # Layer occupancy (ticks)
system.tol2bus.respLayer0.utilization             2.7                       # Layer utilization (%)
system.tol2bus.power_state.pwrStateResidencyTicks::UNDEFINED     59498500                       # Cumulative time (in ticks) in various power states
system.voltage_domain.voltage                       1                       # Voltage in Volts
system.clk_domain.clock                          1000                       # Clock period in ticks
system.l2.demand_hits::.cpu.inst                  178                       # number of demand (read+write) hits
system.l2.demand_hits::.cpu.data                    2                       # number of demand (read+write) hits
system.l2.demand_hits::total                      180                       # number of demand (read+write) hits
system.l2.overall_hits::.cpu.inst                 178                       # number of overall hits
system.l2.overall_hits::.cpu.data                   2                       # number of overall hits
system.l2.overall_hits::total                     180                       # number of overall hits
system.l2.demand_misses::.cpu.inst                893                       # number of demand (read+write) misses
system.l2.demand_misses::.cpu.data                313                       # number of demand (read+write) misses
system.l2.demand_misses::total                   1206                       # number of demand (read+write) misses
system.l2.overall_misses::.cpu.inst               893                       # number of overall misses
system.l2.overall_misses::.cpu.data               313                       # number of overall misses
system.l2.overall_misses::total                  1206                       # number of overall misses
system.l2.demand_miss_latency::.cpu.inst     70389500                       # number of demand (read+write) miss cycles
system.l2.demand_miss_latency::.cpu.data     25947000                       # number of demand (read+write) miss cycles
system.l2.demand_miss_latency::total         96336500                       # number of demand (read+write) miss cycles
system.l2.overall_miss_latency::.cpu.inst     70389500                       # number of overall miss cycles
system.l2.overall_miss_latency::.cpu.data     25947000                       # number of overall miss cycles
system.l2.overall_miss_latency::total        96336500                       # number of overall miss cycles
system.l2.demand_accesses::.cpu.inst             1071                       # number of demand (read+write) accesses
system.l2.demand_accesses::.cpu.data              315                       # number of demand (read+write) accesses
system.l2.demand_accesses::total                 1386                       # number of demand (read+write) accesses
system.l2.overall_accesses::.cpu.inst            1071                       # number of overall (read+write) accesses
system.l2.overall_accesses::.cpu.data             315                       # number of overall (read+write) accesses
system.l2.overall_accesses::total                1386                       # number of overall (read+write) accesses
system.l2.demand_miss_rate::.cpu.inst        0.833800                       # miss rate for demand accesses
system.l2.demand_miss_rate::.cpu.data        0.993651                       # miss rate for demand accesses
system.l2.demand_miss_rate::total            0.870130                       # miss rate for demand accesses
system.l2.overall_miss_rate::.cpu.inst       0.833800                       # miss rate for overall accesses
system.l2.overall_miss_rate::.cpu.data       0.993651                       # miss rate for overall accesses
system.l2.overall_miss_rate::total           0.870130                       # miss rate for overall accesses
system.l2.demand_avg_miss_latency::.cpu.inst 78823.628219                       # average overall miss latency
system.l2.demand_avg_miss_latency::.cpu.data 82897.763578                       # average overall miss latency
system.l2.demand_avg_miss_latency::total 79881.011609                       # average overall miss latency
system.l2.overall_avg_miss_latency::.cpu.inst 78823.628219                       # average overall miss latency
system.l2.overall_avg_miss_latency::.cpu.data 82897.763578                       # average overall miss latency
system.l2.overall_avg_miss_latency::total 79881.011609                       # average overall miss latency
system.l2.blocked_cycles::no_mshrs                  0                       # number of cycles access was blocked
system.l2.blocked_cycles::no_targets                0                       # number of cycles access was blocked
system.l2.blocked::no_mshrs                         0                       # number of cycles access was blocked
system.l2.blocked::no_targets                       0                       # number of cycles access was blocked
system.l2.avg_blocked_cycles::no_mshrs            nan                       # average number of cycles each access was blocked
system.l2.avg_blocked_cycles::no_targets          nan                       # average number of cycles each access was blocked
system.l2.demand_mshr_misses::.cpu.inst           893                       # number of demand (read+write) MSHR misses
system.l2.demand_mshr_misses::.cpu.data           313                       # number of demand (read+write) MSHR misses
system.l2.demand_mshr_misses::total              1206                       # number of demand (read+write) MSHR misses
system.l2.overall_mshr_misses::.cpu.inst          893                       # number of overall MSHR misses
system.l2.overall_mshr_misses::.cpu.data          313                       # number of overall MSHR misses
system.l2.overall_mshr_misses::total             1206                       # number of overall MSHR misses
system.l2.demand_mshr_miss_latency::.cpu.inst     61469500                       # number of demand (read+write) MSHR miss cycles
system.l2.demand_mshr_miss_latency::.cpu.data     22816002                       # number of demand (read+write) MSHR miss cycles
system.l2.demand_mshr_miss_latency::total     84285502                       # number of demand (read+write) MSHR miss cycles
system.l2.overall_mshr_miss_latency::.cpu.inst     61469500                       # number of overall MSHR miss cycles
system.l2.overall_mshr_miss_latency::.cpu.data     22816002                       # number of overall MSHR miss cycles
system.l2.overall_mshr_miss_latency::total     84285502                       # number of overall MSHR miss cycles
system.l2.demand_mshr_miss_rate::.cpu.inst     0.833800                       # mshr miss rate for demand accesses
system.l2.demand_mshr_miss_rate::.cpu.data     0.993651                       # mshr miss rate for demand accesses
system.l2.demand_mshr_miss_rate::total       0.870130                       # mshr miss rate for demand accesses
system.l2.overall_mshr_miss_rate::.cpu.inst     0.833800                       # mshr miss rate for overall accesses
system.l2.overall_mshr_miss_rate::.cpu.data     0.993651                       # mshr miss rate for overall accesses
system.l2.overall_mshr_miss_rate::total      0.870130                       # mshr miss rate for overall accesses
system.l2.demand_avg_mshr_miss_latency::.cpu.inst 68834.826428                       # average overall mshr miss latency
system.l2.demand_avg_mshr_miss_latency::.cpu.data 72894.575080                       # average overall mshr miss latency
system.l2.demand_avg_mshr_miss_latency::total 69888.475954                       # average overall mshr miss latency
system.l2.overall_avg_mshr_miss_latency::.cpu.inst 68834.826428                       # average overall mshr miss latency
system.l2.overall_avg_mshr_miss_latency::.cpu.data 72894.575080                       # average overall mshr miss latency
system.l2.overall_avg_mshr_miss_latency::total 69888.475954                       # average overall mshr miss latency
system.l2.replacements                              0                       # number of replacements
system.l2.WritebackClean_hits::.writebacks          813                       # number of WritebackClean hits
system.l2.WritebackClean_hits::total              813                       # number of WritebackClean hits
system.l2.WritebackClean_accesses::.writebacks          813                       # number of WritebackClean accesses(hits+misses)
system.l2.WritebackClean_accesses::total          813                       # number of WritebackClean accesses(hits+misses)
system.l2.ReadExReq_misses::.cpu.data             168                       # number of ReadExReq misses
system.l2.ReadExReq_misses::total                 168                       # number of ReadExReq misses
system.l2.ReadExReq_miss_latency::.cpu.data     13366000                       # number of ReadExReq miss cycles
system.l2.ReadExReq_miss_latency::total      13366000                       # number of ReadExReq miss cycles
system.l2.ReadExReq_accesses::.cpu.data           168                       # number of ReadExReq accesses(hits+misses)
system.l2.ReadExReq_accesses::total               168                       # number of ReadExReq accesses(hits+misses)
system.l2.ReadExReq_miss_rate::.cpu.data            1                       # miss rate for ReadExReq accesses
system.l2.ReadExReq_miss_rate::total                1                       # miss rate for ReadExReq accesses
system.l2.ReadExReq_avg_miss_latency::.cpu.data 79559.523810                       # average ReadExReq miss latency
system.l2.ReadExReq_avg_miss_latency::total 79559.523810                       # average ReadExReq miss latency
system.l2.ReadExReq_mshr_misses::.cpu.data          168                       # number of ReadExReq MSHR misses
system.l2.ReadExReq_mshr_misses::total            168                       # number of ReadExReq MSHR misses
system.l2.ReadExReq_mshr_miss_latency::.cpu.data     11685002                       # number of ReadExReq MSHR miss cycles
system.l2.ReadExReq_mshr_miss_latency::total     11685002                       # number of ReadExReq MSHR miss cycles
system.l2.ReadExReq_mshr_miss_rate::.cpu.data            1                       # mshr miss rate for ReadExReq accesses
system.l2.ReadExReq_mshr_miss_rate::total            1                       # mshr miss rate for ReadExReq accesses
system.l2.ReadExReq_avg_mshr_miss_latency::.cpu.data 69553.583333                       # average ReadExReq mshr miss latency
system.l2.ReadExReq_avg_mshr_miss_latency::total 69553.583333                       # average ReadExReq mshr miss latency
system.l2.ReadCleanReq_hits::.cpu.inst            178                       # number of ReadCleanReq hits
system.l2.ReadCleanReq_hits::total                178                       # number of ReadCleanReq hits
system.l2.ReadCleanReq_misses::.cpu.inst          893                       # number of ReadCleanReq misses
system.l2.ReadCleanReq_misses::total              893                       # number of ReadCleanReq misses
system.l2.ReadCleanReq_miss_latency::.cpu.inst     70389500                       # number of ReadCleanReq miss cycles
system.l2.ReadCleanReq_miss_latency::total     70389500                       # number of ReadCleanReq miss cycles
system.l2.ReadCleanReq_accesses::.cpu.inst         1071                       # number of ReadCleanReq accesses(hits+misses)
system.l2.ReadCleanReq_accesses::total           1071                       # number of ReadCleanReq accesses(hits+misses)
system.l2.ReadCleanReq_miss_rate::.cpu.inst     0.833800                       # miss rate for ReadCleanReq accesses
system.l2.ReadCleanReq_miss_rate::total      0.833800                       # miss rate for ReadCleanReq accesses
system.l2.ReadCleanReq_avg_miss_latency::.cpu.inst 78823.628219                       # average ReadCleanReq miss latency
system.l2.ReadCleanReq_avg_miss_latency::total 78823.628219                       # average ReadCleanReq miss latency
system.l2.ReadCleanReq_mshr_misses::.cpu.inst          893                       # number of ReadCleanReq MSHR misses
system.l2.ReadCleanReq_mshr_misses::total          893                       # number of ReadCleanReq MSHR misses
system.l2.ReadCleanReq_mshr_miss_latency::.cpu.inst     61469500                       # number of ReadCleanReq MSHR miss cycles
system.l2.ReadCleanReq_mshr_miss_latency::total     61469500                       # number of ReadCleanReq MSHR miss cycles
system.l2.ReadCleanReq_mshr_miss_rate::.cpu.inst     0.833800                       # mshr miss rate for ReadCleanReq accesses
system.l2.ReadCleanReq_mshr_miss_rate::total     0.833800                       # mshr miss rate for ReadCleanReq accesses
system.l2.ReadCleanReq_avg_mshr_miss_latency::.cpu.inst 68834.826428                       # average ReadCleanReq mshr miss latency
system.l2.ReadCleanReq_avg_mshr_miss_latency::total 68834.826428                       # average ReadCleanReq mshr miss latency
system.l2.ReadSharedReq_hits::.cpu.data             2                       # number of ReadSharedReq hits
system.l2.ReadSharedReq_hits::total                 2                       # number of ReadSharedReq hits
system.l2.ReadSharedReq_misses::.cpu.data          145                       # number of ReadSharedReq misses
system.l2.ReadSharedReq_misses::total             145                       # number of ReadSharedReq misses
system.l2.ReadSharedReq_miss_latency::.cpu.data     12581000                       # number of ReadSharedReq miss cycles
system.l2.ReadSharedReq_miss_latency::total     12581000                       # number of ReadSharedReq miss cycles
system.l2.ReadSharedReq_accesses::.cpu.data          147                       # number of ReadSharedReq accesses(hits+misses)
[...]
system.cpu.dcache.overall_misses::.cpu.data         1234                       # number of overall misses
system.cpu.dcache.overall_misses::total          1234                       # number of overall misses
system.cpu.dcache.demand_miss_latency::.cpu.data     86082930                       # number of demand (read+write) miss cycles
system.cpu.dcache.demand_miss_latency::total     86082930                       # number of demand (read+write) miss cycles
system.cpu.dcache.overall_miss_latency::.cpu.data     86082930                       # number of overall miss cycles
system.cpu.dcache.overall_miss_latency::total     86082930                       # number of overall miss cycles
system.cpu.dcache.demand_accesses::.cpu.data        10430                       # number of demand (read+write) accesses
system.cpu.dcache.demand_accesses::total        10430                       # number of demand (read+write) accesses
system.cpu.dcache.overall_accesses::.cpu.data        10457                       # number of overall (read+write) accesses
system.cpu.dcache.overall_accesses::total        10457                       # number of overall (read+write) accesses
system.cpu.dcache.demand_miss_rate::.cpu.data     0.117929                       # miss rate for demand accesses
system.cpu.dcache.demand_miss_rate::total     0.117929                       # miss rate for demand accesses
system.cpu.dcache.overall_miss_rate::.cpu.data     0.118007                       # miss rate for overall accesses
system.cpu.dcache.overall_miss_rate::total     0.118007                       # miss rate for overall accesses
system.cpu.dcache.demand_avg_miss_latency::.cpu.data 69986.121951                       # average overall miss latency
system.cpu.dcache.demand_avg_miss_latency::total 69986.121951                       # average overall miss latency
system.cpu.dcache.overall_avg_miss_latency::.cpu.data 69759.262561                       # average overall miss latency
system.cpu.dcache.overall_avg_miss_latency::total 69759.262561                       # average overall miss latency
system.cpu.dcache.blocked_cycles::no_mshrs         3085                       # number of cycles access was blocked
system.cpu.dcache.blocked_cycles::no_targets            0                       # number of cycles access was blocked
system.cpu.dcache.blocked::no_mshrs                96                       # number of cycles access was blocked
system.cpu.dcache.blocked::no_targets               0                       # number of cycles access was blocked
system.cpu.dcache.avg_blocked_cycles::no_mshrs    32.135417                       # average number of cycles each access was blocked
system.cpu.dcache.avg_blocked_cycles::no_targets          nan                       # average number of cycles each access was blocked
system.cpu.dcache.demand_mshr_hits::.cpu.data          864                       # number of demand (read+write) MSHR hits
system.cpu.dcache.demand_mshr_hits::total          864                       # number of demand (read+write) MSHR hits
system.cpu.dcache.overall_mshr_hits::.cpu.data          864                       # number of overall MSHR hits
system.cpu.dcache.overall_mshr_hits::total          864                       # number of overall MSHR hits
system.cpu.dcache.demand_mshr_misses::.cpu.data          366                       # number of demand (read+write) MSHR misses
system.cpu.dcache.demand_mshr_misses::total          366                       # number of demand (read+write) MSHR misses
system.cpu.dcache.overall_mshr_misses::.cpu.data          370                       # number of overall MSHR misses
system.cpu.dcache.overall_mshr_misses::total          370                       # number of overall MSHR misses
system.cpu.dcache.demand_mshr_miss_latency::.cpu.data     27451468                       # number of demand (read+write) MSHR miss cycles
system.cpu.dcache.demand_mshr_miss_latency::total     27451468                       # number of demand (read+write) MSHR miss cycles
system.cpu.dcache.overall_mshr_miss_latency::.cpu.data     27853468                       # number of overall MSHR miss cycles
system.cpu.dcache.overall_mshr_miss_latency::total     27853468                       # number of overall MSHR miss cycles
system.cpu.dcache.demand_mshr_miss_rate::.cpu.data     0.035091                       # mshr miss rate for demand accesses
system.cpu.dcache.demand_mshr_miss_rate::total     0.035091                       # mshr miss rate for demand accesses
system.cpu.dcache.overall_mshr_miss_rate::.cpu.data     0.035383                       # mshr miss rate for overall accesses
system.cpu.dcache.overall_mshr_miss_rate::total     0.035383                       # mshr miss rate for overall accesses
system.cpu.dcache.demand_avg_mshr_miss_latency::.cpu.data 75004.010929                       # average overall mshr miss latency
system.cpu.dcache.demand_avg_mshr_miss_latency::total 75004.010929                       # average overall mshr miss latency
system.cpu.dcache.overall_avg_mshr_miss_latency::.cpu.data 75279.643243                       # average overall mshr miss latency
system.cpu.dcache.overall_avg_mshr_miss_latency::total 75279.643243                       # average overall mshr miss latency
system.cpu.dcache.replacements                      3                       # number of replacements
system.cpu.dcache.ReadReq_hits::.cpu.data         5465                       # number of ReadReq hits
system.cpu.dcache.ReadReq_hits::total            5465                       # number of ReadReq hits
system.cpu.dcache.ReadReq_misses::.cpu.data          335                       # number of ReadReq misses
system.cpu.dcache.ReadReq_misses::total           335                       # number of ReadReq misses
system.cpu.dcache.ReadReq_miss_latency::.cpu.data     24341500                       # number of ReadReq miss cycles
system.cpu.dcache.ReadReq_miss_latency::total     24341500                       # number of ReadReq miss cycles
system.cpu.dcache.ReadReq_accesses::.cpu.data         5800                       # number of ReadReq accesses(hits+misses)
system.cpu.dcache.ReadReq_accesses::total         5800                       # number of ReadReq accesses(hits+misses)
system.cpu.dcache.ReadReq_miss_rate::.cpu.data     0.057759                       # miss rate for ReadReq accesses
system.cpu.dcache.ReadReq_miss_rate::total     0.057759                       # miss rate for ReadReq accesses
system.cpu.dcache.ReadReq_avg_miss_latency::.cpu.data 72661.194030                       # average ReadReq miss latency
system.cpu.dcache.ReadReq_avg_miss_latency::total 72661.194030                       # average ReadReq miss latency
system.cpu.dcache.ReadReq_mshr_hits::.cpu.data          193                       # number of ReadReq MSHR hits
system.cpu.dcache.ReadReq_mshr_hits::total          193                       # number of ReadReq MSHR hits
system.cpu.dcache.ReadReq_mshr_misses::.cpu.data          142                       # number of ReadReq MSHR misses
system.cpu.dcache.ReadReq_mshr_misses::total          142                       # number of ReadReq MSHR misses
system.cpu.dcache.ReadReq_mshr_miss_latency::.cpu.data     12100500                       # number of ReadReq MSHR miss cycles
system.cpu.dcache.ReadReq_mshr_miss_latency::total     12100500                       # number of ReadReq MSHR miss cycles
system.cpu.dcache.ReadReq_mshr_miss_rate::.cpu.data     0.024483                       # mshr miss rate for ReadReq accesses
system.cpu.dcache.ReadReq_mshr_miss_rate::total     0.024483                       # mshr miss rate for ReadReq accesses
system.cpu.dcache.ReadReq_avg_mshr_miss_latency::.cpu.data 85214.788732                       # average ReadReq mshr miss latency
system.cpu.dcache.ReadReq_avg_mshr_miss_latency::total 85214.788732                       # average ReadReq mshr miss latency
system.cpu.dcache.WriteReq_hits::.cpu.data         3735                       # number of WriteReq hits
system.cpu.dcache.WriteReq_hits::total           3735                       # number of WriteReq hits
system.cpu.dcache.WriteReq_misses::.cpu.data          844                       # number of WriteReq misses
system.cpu.dcache.WriteReq_misses::total          844                       # number of WriteReq misses
system.cpu.dcache.WriteReq_miss_latency::.cpu.data     60118457                       # number of WriteReq miss cycles
system.cpu.dcache.WriteReq_miss_latency::total     60118457                       # number of WriteReq miss cycles
system.cpu.dcache.WriteReq_accesses::.cpu.data         4579                       # number of WriteReq accesses(hits+misses)
system.cpu.dcache.WriteReq_accesses::total         4579                       # number of WriteReq accesses(hits+misses)
system.cpu.dcache.WriteReq_miss_rate::.cpu.data     0.184320                       # miss rate for WriteReq accesses
system.cpu.dcache.WriteReq_miss_rate::total     0.184320                       # miss rate for WriteReq accesses
system.cpu.dcache.WriteReq_avg_miss_latency::.cpu.data 71230.399289                       # average WriteReq miss latency
system.cpu.dcache.WriteReq_avg_miss_latency::total 71230.399289                       # average WriteReq miss latency
system.cpu.dcache.WriteReq_mshr_hits::.cpu.data          671                       # number of WriteReq MSHR hits
system.cpu.dcache.WriteReq_mshr_hits::total          671                       # number of WriteReq MSHR hits
system.cpu.dcache.WriteReq_mshr_misses::.cpu.data          173                       # number of WriteReq MSHR misses
system.cpu.dcache.WriteReq_mshr_misses::total          173                       # number of WriteReq MSHR misses
system.cpu.dcache.WriteReq_mshr_miss_latency::.cpu.data     13778995                       # number of WriteReq MSHR miss cycles
system.cpu.dcache.WriteReq_mshr_miss_latency::total     13778995                       # number of WriteReq MSHR miss cycles
system.cpu.dcache.WriteReq_mshr_miss_rate::.cpu.data     0.037781                       # mshr miss rate for WriteReq accesses
system.cpu.dcache.WriteReq_mshr_miss_rate::total     0.037781                       # mshr miss rate for WriteReq accesses
system.cpu.dcache.WriteReq_avg_mshr_miss_latency::.cpu.data 79647.369942                       # average WriteReq mshr miss latency
system.cpu.dcache.WriteReq_avg_mshr_miss_latency::total 79647.369942                       # average WriteReq mshr miss latency
system.cpu.dcache.SoftPFReq_hits::.cpu.data           23                       # number of SoftPFReq hits
system.cpu.dcache.SoftPFReq_hits::total            23                       # number of SoftPFReq hits
system.cpu.dcache.SoftPFReq_misses::.cpu.data            4                       # number of SoftPFReq misses
system.cpu.dcache.SoftPFReq_misses::total            4                       # number of SoftPFReq misses
system.cpu.dcache.SoftPFReq_accesses::.cpu.data           27                       # number of SoftPFReq accesses(hits+misses)
system.cpu.dcache.SoftPFReq_accesses::total           27                       # number of SoftPFReq accesses(hits+misses)
system.cpu.dcache.SoftPFReq_miss_rate::.cpu.data     0.148148                       # miss rate for SoftPFReq accesses
system.cpu.dcache.SoftPFReq_miss_rate::total     0.148148                       # miss rate for SoftPFReq accesses
system.cpu.dcache.SoftPFReq_mshr_misses::.cpu.data            4                       # number of SoftPFReq MSHR misses
system.cpu.dcache.SoftPFReq_mshr_misses::total            4                       # number of SoftPFReq MSHR misses
system.cpu.dcache.SoftPFReq_mshr_miss_latency::.cpu.data       402000                       # number of SoftPFReq MSHR miss cycles
system.cpu.dcache.SoftPFReq_mshr_miss_latency::total       402000                       # number of SoftPFReq MSHR miss cycles
system.cpu.dcache.SoftPFReq_mshr_miss_rate::.cpu.data     0.148148                       # mshr miss rate for SoftPFReq accesses
system.cpu.dcache.SoftPFReq_mshr_miss_rate::total     0.148148                       # mshr miss rate for SoftPFReq accesses
system.cpu.dcache.SoftPFReq_avg_mshr_miss_latency::.cpu.data       100500                       # average SoftPFReq mshr miss latency
system.cpu.dcache.SoftPFReq_avg_mshr_miss_latency::total       100500                       # average SoftPFReq mshr miss latency
system.cpu.dcache.WriteLineReq_misses::.cpu.data           51                       # number of WriteLineReq misses
system.cpu.dcache.WriteLineReq_misses::total           51                       # number of WriteLineReq misses
system.cpu.dcache.WriteLineReq_miss_latency::.cpu.data      1622973                       # number of WriteLineReq miss cycles
system.cpu.dcache.WriteLineReq_miss_latency::total      1622973                       # number of WriteLineReq miss cycles
system.cpu.dcache.WriteLineReq_accesses::.cpu.data           51                       # number of WriteLineReq accesses(hits+misses)
system.cpu.dcache.WriteLineReq_accesses::total           51                       # number of WriteLineReq accesses(hits+misses)
system.cpu.dcache.WriteLineReq_miss_rate::.cpu.data            1                       # miss rate for WriteLineReq accesses
system.cpu.dcache.WriteLineReq_miss_rate::total            1                       # miss rate for WriteLineReq accesses
system.cpu.dcache.WriteLineReq_avg_miss_latency::.cpu.data        31823                       # average WriteLineReq miss latency
system.cpu.dcache.WriteLineReq_avg_miss_latency::total        31823                       # average WriteLineReq miss latency
system.cpu.dcache.WriteLineReq_mshr_misses::.cpu.data           51                       # number of WriteLineReq MSHR misses
system.cpu.dcache.WriteLineReq_mshr_misses::total           51                       # number of WriteLineReq MSHR misses
system.cpu.dcache.WriteLineReq_mshr_miss_latency::.cpu.data      1571973                       # number of WriteLineReq MSHR miss cycles
system.cpu.dcache.WriteLineReq_mshr_miss_latency::total      1571973                       # number of WriteLineReq MSHR miss cycles
system.cpu.dcache.WriteLineReq_mshr_miss_rate::.cpu.data            1                       # mshr miss rate for WriteLineReq accesses
system.cpu.dcache.WriteLineReq_mshr_miss_rate::total            1                       # mshr miss rate for WriteLineReq accesses
system.cpu.dcache.WriteLineReq_avg_mshr_miss_latency::.cpu.data        30823                       # average WriteLineReq mshr miss latency
system.cpu.dcache.WriteLineReq_avg_mshr_miss_latency::total        30823                       # average WriteLineReq mshr miss latency
system.cpu.dcache.LoadLockedReq_hits::.cpu.data           51                       # number of LoadLockedReq hits
system.cpu.dcache.LoadLockedReq_hits::total           51                       # number of LoadLockedReq hits
system.cpu.dcache.LoadLockedReq_misses::.cpu.data            1                       # number of LoadLockedReq misses
system.cpu.dcache.LoadLockedReq_misses::total            1                       # number of LoadLockedReq misses
system.cpu.dcache.LoadLockedReq_miss_latency::.cpu.data       324500                       # number of LoadLockedReq miss cycles
system.cpu.dcache.LoadLockedReq_miss_latency::total       324500                       # number of LoadLockedReq miss cycles
system.cpu.dcache.LoadLockedReq_accesses::.cpu.data           52                       # number of LoadLockedReq accesses(hits+misses)
system.cpu.dcache.LoadLockedReq_accesses::total           52                       # number of LoadLockedReq accesses(hits+misses)
system.cpu.dcache.LoadLockedReq_miss_rate::.cpu.data     0.019231                       # miss rate for LoadLockedReq accesses
system.cpu.dcache.LoadLockedReq_miss_rate::total     0.019231                       # miss rate for LoadLockedReq accesses
system.cpu.dcache.LoadLockedReq_avg_miss_latency::.cpu.data       324500                       # average LoadLockedReq miss latency
system.cpu.dcache.LoadLockedReq_avg_miss_latency::total       324500                       # average LoadLockedReq miss latency
system.cpu.dcache.LoadLockedReq_mshr_misses::.cpu.data            1                       # number of LoadLockedReq MSHR misses
system.cpu.dcache.LoadLockedReq_mshr_misses::total            1                       # number of LoadLockedReq MSHR misses
system.cpu.dcache.LoadLockedReq_mshr_miss_latency::.cpu.data       323500                       # number of LoadLockedReq MSHR miss cycles
system.cpu.dcache.LoadLockedReq_mshr_miss_latency::total       323500                       # number of LoadLockedReq MSHR miss cycles
system.cpu.dcache.LoadLockedReq_mshr_miss_rate::.cpu.data     0.019231                       # mshr miss rate for LoadLockedReq accesses
system.cpu.dcache.LoadLockedReq_mshr_miss_rate::total     0.019231                       # mshr miss rate for LoadLockedReq accesses
system.cpu.dcache.LoadLockedReq_avg_mshr_miss_latency::.cpu.data       323500                       # average LoadLockedReq mshr miss latency
system.cpu.dcache.LoadLockedReq_avg_mshr_miss_latency::total       323500                       # average LoadLockedReq mshr miss latency
system.cpu.dcache.StoreCondReq_hits::.cpu.data           36                       # number of StoreCondReq hits
system.cpu.dcache.StoreCondReq_hits::total           36                       # number of StoreCondReq hits
system.cpu.dcache.StoreCondReq_accesses::.cpu.data           36                       # number of StoreCondReq accesses(hits+misses)
system.cpu.dcache.StoreCondReq_accesses::total           36                       # number of StoreCondReq accesses(hits+misses)
system.cpu.dcache.power_state.pwrStateResidencyTicks::UNDEFINED     59498500                       # Cumulative time (in ticks) in various power states
system.cpu.dcache.tags.tagsinuse           240.052398                       # Cycle average of tags in use
system.cpu.dcache.tags.total_refs                9681                       # Total number of references to valid blocks.
system.cpu.dcache.tags.sampled_refs               371                       # Sample count of references to valid blocks.
system.cpu.dcache.tags.avg_refs             26.094340                       # Average number of references to valid blocks.
system.cpu.dcache.tags.warmup_cycle            176500                       # Cycle when the warmup percentage was hit.
system.cpu.dcache.tags.occ_blocks::.cpu.data   240.052398                       # Average occupied blocks per requestor
system.cpu.dcache.tags.occ_percent::.cpu.data     0.234426                       # Average percentage of cache occupancy
system.cpu.dcache.tags.occ_percent::total     0.234426                       # Average percentage of cache occupancy
system.cpu.dcache.tags.occ_task_id_blocks::1024          368                       # Occupied blocks per task id
system.cpu.dcache.tags.age_task_id_blocks_1024::0           28                       # Occupied blocks per task id
system.cpu.dcache.tags.age_task_id_blocks_1024::1          340                       # Occupied blocks per task id
system.cpu.dcache.tags.occ_task_id_percent::1024     0.359375                       # Percentage of cache occupancy per task id
system.cpu.dcache.tags.tag_accesses             21461                       # Number of tag accesses
system.cpu.dcache.tags.data_accesses            21461                       # Number of data accesses
system.cpu.dcache.tags.power_state.pwrStateResidencyTicks::UNDEFINED     59498500                       # Cumulative time (in ticks) in various power states
system.cpu.power_state.pwrStateResidencyTicks::ON     59498500                       # Cumulative time (in ticks) in various power states

---------- End Simulation Statistics   ----------
