
---------- Begin Simulation Statistics ----------
final_tick                                  451500000                       # Number of ticks from beginning of simulation (restored from checkpoints and never reset)
host_inst_rate                                 115789                       # Simulator instruction rate (inst/s)
host_mem_usage                                 863980                       # Number of bytes of host memory used
host_op_rate                                   116248                       # Simulator op (including micro ops) rate (op/s)
host_seconds                                     8.64                       # Real time elapsed on the host
host_tick_rate                               52277753                       # Simulator tick rate (ticks/s)
sim_freq                                 1000000000000                       # Frequency of simulated ticks
sim_insts                                     1000000                       # Number of instructions simulated
sim_ops                                       1003978                       # Number of ops (including micro ops) simulated
sim_seconds                                  0.000452                       # Number of seconds simulated
sim_ticks                                   451500000                       # Number of ticks simulated
system.cpu.branchPred.BTBCorrect                    0                       # Number of correct BTB predictions (this stat may not work properly.
system.cpu.branchPred.BTBHitPct             97.435934                       # BTB Hit Percentage
system.cpu.branchPred.BTBHits                  136992                       # Number of BTB hits
system.cpu.branchPred.BTBLookups               140597                       # Number of BTB lookups
system.cpu.branchPred.RASInCorrect                  1                       # Number of incorrect RAS predictions.
system.cpu.branchPred.condIncorrect              3386                       # Number of conditional branches incorrect
system.cpu.branchPred.condPredicted            146520                       # Number of conditional branches predicted
system.cpu.branchPred.indirectHits                  6                       # Number of indirect target hits.
system.cpu.branchPred.indirectLookups             213                       # Number of indirect predictor lookups.
system.cpu.branchPred.indirectMisses              207                       # Number of indirect misses.
system.cpu.branchPred.lookups                  154369                       # Number of BP lookups
system.cpu.branchPred.usedRAS                    2314                       # Number of times the RAS was used to get a target.
system.cpu.branchPredindirectMispredicted           66                       # Number of mispredicted indirect branches.
system.cpu.cc_regfile_reads                    397860                       # number of cc regfile reads
system.cpu.cc_regfile_writes                   397867                       # number of cc regfile writes
system.cpu.commit.amos                              0                       # Number of atomic instructions committed
system.cpu.commit.branchMispredicts              3034                       # The number of times a branch was mispredicted
system.cpu.commit.branches                     117621                       # Number of branches committed
system.cpu.commit.bw_lim_events                 91135                       # number cycles where commit BW limit reached
system.cpu.commit.commitNonSpecStalls              84                       # The number of times commit has been forced to stall to communicate backwards
system.cpu.commit.commitSquashedInsts          126407                       # The number of squashed insts skipped by commit
system.cpu.commit.committedInsts              1000203                       # Number of instructions committed
system.cpu.commit.committedOps                1004181                       # Number of ops (including micro ops) committed
system.cpu.commit.committed_per_cycle::samples       826023                       # Number of insts commited each cycle
system.cpu.commit.committed_per_cycle::mean     1.215682                       # Number of insts commited each cycle
system.cpu.commit.committed_per_cycle::stdev     2.584153                       # Number of insts commited each cycle
system.cpu.commit.committed_per_cycle::underflows            0      0.00%      0.00% # Number of insts commited each cycle
system.cpu.commit.committed_per_cycle::0       617475     74.75%     74.75% # Number of insts commited each cycle
system.cpu.commit.committed_per_cycle::1        52250      6.33%     81.08% # Number of insts commited each cycle
system.cpu.commit.committed_per_cycle::2        16714      2.02%     83.10% # Number of insts commited each cycle
system.cpu.commit.committed_per_cycle::3        16484      2.00%     85.10% # Number of insts commited each cycle
system.cpu.commit.committed_per_cycle::4        25998      3.15%     88.24% # Number of insts commited each cycle
system.cpu.commit.committed_per_cycle::5         1814      0.22%     88.46% # Number of insts commited each cycle
system.cpu.commit.committed_per_cycle::6         2162      0.26%     88.73% # Number of insts commited each cycle
system.cpu.commit.committed_per_cycle::7         1991      0.24%     88.97% # Number of insts commited each cycle
system.cpu.commit.committed_per_cycle::8        91135     11.03%    100.00% # Number of insts commited each cycle
system.cpu.commit.committed_per_cycle::overflows            0      0.00%    100.00% # Number of insts commited each cycle
system.cpu.commit.committed_per_cycle::min_value            0                       # Number of insts commited each cycle
system.cpu.commit.committed_per_cycle::max_value            8                       # Number of insts commited each cycle
system.cpu.commit.committed_per_cycle::total       826023                       # Number of insts commited each cycle
system.cpu.commit.fp_insts                          0                       # Number of committed floating point instructions.
system.cpu.commit.function_calls                  280                       # Number of function calls committed.
system.cpu.commit.int_insts                    888121                       # Number of committed integer instructions.
system.cpu.commit.loads                        355397                       # Number of loads committed
system.cpu.commit.membars                          58                       # Number of memory barriers committed
system.cpu.commit.op_class_0::No_OpClass            4      0.00%      0.00% # Class of committed instruction
system.cpu.commit.op_class_0::IntAlu           531746     52.95%     52.95% # Class of committed instruction
system.cpu.commit.op_class_0::IntMult              42      0.00%     52.96% # Class of committed instruction
system.cpu.commit.op_class_0::IntDiv                3      0.00%     52.96% # Class of committed instruction
system.cpu.commit.op_class_0::FloatAdd             12      0.00%     52.96% # Class of committed instruction
system.cpu.commit.op_class_0::FloatCmp              1      0.00%     52.96% # Class of committed instruction
system.cpu.commit.op_class_0::FloatCvt             11      0.00%     52.96% # Class of committed instruction
system.cpu.commit.op_class_0::FloatMult             6      0.00%     52.96% # Class of committed instruction
system.cpu.commit.op_class_0::FloatMultAcc           16      0.00%     52.96% # Class of committed instruction
system.cpu.commit.op_class_0::FloatDiv              8      0.00%     52.96% # Class of committed instruction
system.cpu.commit.op_class_0::FloatMisc            11      0.00%     52.96% # Class of committed instruction
system.cpu.commit.op_class_0::FloatSqrt             0      0.00%     52.96% # Class of committed instruction
system.cpu.commit.op_class_0::SimdAdd              18      0.00%     52.97% # Class of committed instruction
system.cpu.commit.op_class_0::SimdAddAcc            0      0.00%     52.97% # Class of committed instruction
system.cpu.commit.op_class_0::SimdAlu              18      0.00%     52.97% # Class of committed instruction
system.cpu.commit.op_class_0::SimdCmp              16      0.00%     52.97% # Class of committed instruction
system.cpu.commit.op_class_0::SimdCvt               2      0.00%     52.97% # Class of committed instruction
system.cpu.commit.op_class_0::SimdMisc             15      0.00%     52.97% # Class of committed instruction
system.cpu.commit.op_class_0::SimdMult              0      0.00%     52.97% # Class of committed instruction
system.cpu.commit.op_class_0::SimdMultAcc            0      0.00%     52.97% # Class of committed instruction
system.cpu.commit.op_class_0::SimdShift             0      0.00%     52.97% # Class of committed instruction
system.cpu.commit.op_class_0::SimdShiftAcc            0      0.00%     52.97% # Class of committed instruction
system.cpu.commit.op_class_0::SimdDiv               0      0.00%     52.97% # Class of committed instruction
system.cpu.commit.op_class_0::SimdSqrt              0      0.00%     52.97% # Class of committed instruction
system.cpu.commit.op_class_0::SimdFloatAdd            0      0.00%     52.97% # Class of committed instruction
system.cpu.commit.op_class_0::SimdFloatAlu            0      0.00%     52.97% # Class of committed instruction
system.cpu.commit.op_class_0::SimdFloatCmp            0      0.00%     52.97% # Class of committed instruction
system.cpu.commit.op_class_0::SimdFloatCvt            0      0.00%     52.97% # Class of committed instruction
system.cpu.commit.op_class_0::SimdFloatDiv            0      0.00%     52.97% # Class of committed instruction
system.cpu.commit.op_class_0::SimdFloatMisc            0      0.00%     52.97% # Class of committed instruction
system.cpu.commit.op_class_0::SimdFloatMult            0      0.00%     52.97% # Class of committed instruction
system.cpu.commit.op_class_0::SimdFloatMultAcc            0      0.00%     52.97% # Class of committed instruction
system.cpu.commit.op_class_0::SimdFloatSqrt            0      0.00%     52.97% # Class of committed instruction
system.cpu.commit.op_class_0::SimdReduceAdd            0      0.00%     52.97% # Class of committed instruction
system.cpu.commit.op_class_0::SimdReduceAlu            0      0.00%     52.97% # Class of committed instruction
system.cpu.commit.op_class_0::SimdReduceCmp            0      0.00%     52.97% # Class of committed instruction
system.cpu.commit.op_class_0::SimdFloatReduceAdd            0      0.00%     52.97% # Class of committed instruction
system.cpu.commit.op_class_0::SimdFloatReduceCmp            0      0.00%     52.97% # Class of committed instruction
system.cpu.commit.op_class_0::SimdAes               0      0.00%     52.97% # Class of committed instruction
system.cpu.commit.op_class_0::SimdAesMix            0      0.00%     52.97% # Class of committed instruction
system.cpu.commit.op_class_0::SimdSha1Hash            0      0.00%     52.97% # Class of committed instruction
system.cpu.commit.op_class_0::SimdSha1Hash2            0      0.00%     52.97% # Class of committed instruction
system.cpu.commit.op_class_0::SimdSha256Hash            0      0.00%     52.97% # Class of committed instruction
system.cpu.commit.op_class_0::SimdSha256Hash2            0      0.00%     52.97% # Class of committed instruction
system.cpu.commit.op_class_0::SimdShaSigma2            0      0.00%     52.97% # Class of committed instruction
system.cpu.commit.op_class_0::SimdShaSigma3            0      0.00%     52.97% # Class of committed instruction
system.cpu.commit.op_class_0::SimdPredAlu            0      0.00%     52.97% # Class of committed instruction
system.cpu.commit.op_class_0::MemRead          355397     35.39%     88.36% # Class of committed instruction
system.cpu.commit.op_class_0::MemWrite         116855     11.64%    100.00% # Class of committed instruction
system.cpu.commit.op_class_0::FloatMemRead            0      0.00%    100.00% # Class of committed instruction
system.cpu.commit.op_class_0::FloatMemWrite            0      0.00%    100.00% # Class of committed instruction
system.cpu.commit.op_class_0::IprAccess             0      0.00%    100.00% # Class of committed instruction
system.cpu.commit.op_class_0::InstPrefetch            0      0.00%    100.00% # Class of committed instruction
system.cpu.commit.op_class_0::total           1004181                       # Class of committed instruction
system.cpu.commit.refs                         472252                       # Number of memory references committed
system.cpu.commit.swp_count                         0                       # Number of s/w prefetches committed
system.cpu.commit.vec_insts                       465                       # Number of committed Vector instructions.
system.cpu.committedInsts                     1000000                       # Number of Instructions Simulated
system.cpu.committedOps                       1003978                       # Number of Ops (including micro ops) Simulated
system.cpu.cpi                               0.903001                       # CPI: Cycles Per Instruction
system.cpu.cpi_total                         0.903001                       # CPI: Total CPI of All Threads
system.cpu.decode.BlockedCycles                616343                       # Number of cycles decode is blocked
system.cpu.decode.BranchMispred                   429                       # Number of times decode detected a branch misprediction
system.cpu.decode.BranchResolved               132516                       # Number of times decode resolved a branch
system.cpu.decode.DecodedInsts                1155796                       # Number of instructions handled by decode
system.cpu.decode.IdleCycles                    46108                       # Number of cycles decode is idle
system.cpu.decode.RunCycles                    139562                       # Number of cycles decode is running
system.cpu.decode.SquashCycles                   3479                       # Number of cycles decode is squashing
system.cpu.decode.SquashedInsts                  1254                       # Number of squashed instructions handled by decode
system.cpu.decode.UnblockCycles                 38199                       # Number of cycles decode is unblocking
system.cpu.dtb.accesses                             0                       # DTB accesses
system.cpu.dtb.align_faults                         0                       # Number of TLB faults due to alignment restrictions
system.cpu.dtb.domain_faults                        0                       # Number of TLB faults due to domain restrictions
system.cpu.dtb.flush_entries                        0                       # Number of entries that have been flushed from TLB
system.cpu.dtb.flush_tlb                            0                       # Number of times complete TLB was flushed
system.cpu.dtb.flush_tlb_asid                       0                       # Number of times TLB was flushed by ASID
system.cpu.dtb.flush_tlb_mva                        0                       # Number of times TLB was flushed by MVA
system.cpu.dtb.flush_tlb_mva_asid                   0                       # Number of times TLB was flushed by MVA & ASID
system.cpu.dtb.hits                                 0                       # DTB hits
system.cpu.dtb.inst_accesses                        0                       # ITB inst accesses
system.cpu.dtb.inst_hits                            0                       # ITB inst hits
system.cpu.dtb.inst_misses                          0                       # ITB inst misses
system.cpu.dtb.misses                               0                       # DTB misses
system.cpu.dtb.perms_faults                         0                       # Number of TLB faults due to permissions restrictions
system.cpu.dtb.prefetch_faults                      0                       # Number of TLB faults due to prefetch
system.cpu.dtb.read_accesses                        0                       # DTB read accesses
system.cpu.dtb.read_hits                            0                       # DTB read hits
system.cpu.dtb.read_misses                          0                       # DTB read misses
system.cpu.dtb.stage2_mmu.stage2_tlb.accesses            0                       # DTB accesses
system.cpu.dtb.stage2_mmu.stage2_tlb.align_faults            0                       # Number of TLB faults due to alignment restrictions
system.cpu.dtb.stage2_mmu.stage2_tlb.domain_faults            0                       # Number of TLB faults due to domain restrictions
system.cpu.dtb.stage2_mmu.stage2_tlb.flush_entries            0                       # Number of entries that have been flushed from TLB
system.cpu.dtb.stage2_mmu.stage2_tlb.flush_tlb            0                       # Number of times complete TLB was flushed
system.cpu.dtb.stage2_mmu.stage2_tlb.flush_tlb_asid            0                       # Number of times TLB was flushed by ASID
system.cpu.dtb.stage2_mmu.stage2_tlb.flush_tlb_mva            0                       # Number of times TLB was flushed by MVA
system.cpu.dtb.stage2_mmu.stage2_tlb.flush_tlb_mva_asid            0                       # Number of times TLB was flushed by MVA & ASID
system.cpu.dtb.stage2_mmu.stage2_tlb.hits            0                       # DTB hits
system.cpu.dtb.stage2_mmu.stage2_tlb.inst_accesses            0                       # ITB inst accesses
system.cpu.dtb.stage2_mmu.stage2_tlb.inst_hits            0                       # ITB inst hits
system.cpu.dtb.stage2_mmu.stage2_tlb.inst_misses            0                       # ITB inst misses
system.cpu.dtb.stage2_mmu.stage2_tlb.misses            0                       # DTB misses
system.cpu.dtb.stage2_mmu.stage2_tlb.perms_faults            0                       # Number of TLB faults due to permissions restrictions
system.cpu.dtb.stage2_mmu.stage2_tlb.prefetch_faults            0                       # Number of TLB faults due to prefetch
system.cpu.dtb.stage2_mmu.stage2_tlb.read_accesses            0                       # DTB read accesses
system.cpu.dtb.stage2_mmu.stage2_tlb.read_hits            0                       # DTB read hits
system.cpu.dtb.stage2_mmu.stage2_tlb.read_misses            0                       # DTB read misses
system.cpu.dtb.stage2_mmu.stage2_tlb.walker.walkRequestOrigin_Requested::Data            0                       # Table walker requests started/completed, data/inst
system.cpu.dtb.stage2_mmu.stage2_tlb.walker.walkRequestOrigin_Requested::Inst            0                       # Table walker requests started/completed, data/inst
system.cpu.dtb.stage2_mmu.stage2_tlb.walker.walkRequestOrigin_Requested::total            0                       # Table walker requests started/completed, data/inst
system.cpu.dtb.stage2_mmu.stage2_tlb.walker.walkRequestOrigin_Completed::Data            0                       # Table walker requests started/completed, data/inst
system.cpu.dtb.stage2_mmu.stage2_tlb.walker.walkRequestOrigin_Completed::Inst            0                       # Table walker requests started/completed, data/inst
system.cpu.dtb.stage2_mmu.stage2_tlb.walker.walkRequestOrigin_Completed::total            0                       # Table walker requests started/completed, data/inst
system.cpu.dtb.stage2_mmu.stage2_tlb.walker.walkRequestOrigin::total            0                       # Table walker requests started/completed, data/inst
system.cpu.dtb.stage2_mmu.stage2_tlb.walker.walks            0                       # Table walker walks requested
system.cpu.dtb.stage2_mmu.stage2_tlb.write_accesses            0                       # DTB write accesses
system.cpu.dtb.stage2_mmu.stage2_tlb.write_hits            0                       # DTB write hits
system.cpu.dtb.stage2_mmu.stage2_tlb.write_misses            0                       # DTB write misses
system.cpu.dtb.walker.walkRequestOrigin_Requested::Data            0                       # Table walker requests started/completed, data/inst
system.cpu.dtb.walker.walkRequestOrigin_Requested::Inst            0                       # Table walker requests started/completed, data/inst
system.cpu.dtb.walker.walkRequestOrigin_Requested::total            0                       # Table walker requests started/completed, data/inst
system.cpu.dtb.walker.walkRequestOrigin_Completed::Data            0                       # Table walker requests started/completed, data/inst
system.cpu.dtb.walker.walkRequestOrigin_Completed::Inst            0                       # Table walker requests started/completed, data/inst
system.cpu.dtb.walker.walkRequestOrigin_Completed::total            0                       # Table walker requests started/completed, data/inst
system.cpu.dtb.walker.walkRequestOrigin::total            0                       # Table walker requests started/completed, data/inst
system.cpu.dtb.walker.walks                         0                       # Table walker walks requested
system.cpu.dtb.write_accesses                       0                       # DTB write accesses
system.cpu.dtb.write_hits                           0                       # DTB write hits
system.cpu.dtb.write_misses                         0                       # DTB write misses
system.cpu.fetch.Branches                      154369                       # Number of branches that fetch encountered
system.cpu.fetch.CacheLines                     20826                       # Number of cache lines fetched
system.cpu.fetch.Cycles                        801542                       # Number of cycles fetch has run and was not squashing or blocked
system.cpu.fetch.IcacheSquashes                  1893                       # Number of outstanding Icache misses that were squashed
system.cpu.fetch.IcacheWaitRetryStallCycles           45                       # Number of stall cycles due to full MSHR
system.cpu.fetch.Insts                        1170332                       # Number of instructions fetch has processed
system.cpu.fetch.MiscStallCycles                   39                       # Number of cycles fetch has spent waiting on interrupts, or bad addresses, or out of MSHRs
system.cpu.fetch.SquashCycles                    7662                       # Number of cycles fetch has spent squashing
system.cpu.fetch.branchRate                  0.170951                       # Number of branch fetches per cycle
system.cpu.fetch.icacheStallCycles              38234                       # Number of cycles fetch is stalled on an Icache miss
system.cpu.fetch.predictedBranches             139312                       # Number of branches that fetch has predicted taken
system.cpu.fetch.rate                        1.296047                       # Number of inst fetches per cycle
system.cpu.fetch.rateDist::samples             843691                       # Number of instructions fetched each cycle (Total)
system.cpu.fetch.rateDist::mean              1.409101                       # Number of instructions fetched each cycle (Total)
system.cpu.fetch.rateDist::stdev             2.650602                       # Number of instructions fetched each cycle (Total)
system.cpu.fetch.rateDist::underflows               0      0.00%      0.00% # Number of instructions fetched each cycle (Total)
system.cpu.fetch.rateDist::0                   599963     71.11%     71.11% # Number of instructions fetched each cycle (Total)
system.cpu.fetch.rateDist::1                     4049      0.48%     71.59% # Number of instructions fetched each cycle (Total)
system.cpu.fetch.rateDist::2                    89405     10.60%     82.19% # Number of instructions fetched each cycle (Total)
system.cpu.fetch.rateDist::3                      801      0.09%     82.28% # Number of instructions fetched each cycle (Total)
system.cpu.fetch.rateDist::4                    43335      5.14%     87.42% # Number of instructions fetched each cycle (Total)
system.cpu.fetch.rateDist::5                     4241      0.50%     87.92% # Number of instructions fetched each cycle (Total)
system.cpu.fetch.rateDist::6                     2546      0.30%     88.22% # Number of instructions fetched each cycle (Total)
system.cpu.fetch.rateDist::7                     1045      0.12%     88.35% # Number of instructions fetched each cycle (Total)
system.cpu.fetch.rateDist::8                    98306     11.65%    100.00% # Number of instructions fetched each cycle (Total)
system.cpu.fetch.rateDist::overflows                0      0.00%    100.00% # Number of instructions fetched each cycle (Total)
system.cpu.fetch.rateDist::min_value                0                       # Number of instructions fetched each cycle (Total)
system.cpu.fetch.rateDist::max_value                8                       # Number of instructions fetched each cycle (Total)
system.cpu.fetch.rateDist::total               843691                       # Number of instructions fetched each cycle (Total)
system.cpu.idleCycles                           59310                       # Total number of cycles that the CPU has spent unscheduled due to idling
system.cpu.iew.branchMispredicts                 4509                       # Number of branch mispredicts detected at execute
system.cpu.iew.exec_branches                   137355                       # Number of branches executed
system.cpu.iew.exec_nop                           758                       # number of nop insts executed
system.cpu.iew.exec_rate                     1.225515                       # Inst execution rate
system.cpu.iew.exec_refs                       507970                       # number of memory reference insts executed
system.cpu.iew.exec_stores                     131036                       # Number of stores executed
system.cpu.iew.exec_swp                             0                       # number of swp insts executed
system.cpu.iew.iewBlockCycles                   17375                       # Number of cycles IEW is blocking
system.cpu.iew.iewDispLoadInsts                373417                       # Number of dispatched load instructions
system.cpu.iew.iewDispNonSpecInsts                129                       # Number of dispatched non-speculative instructions
system.cpu.iew.iewDispSquashedInsts               188                       # Number of squashed instructions skipped by dispatch
system.cpu.iew.iewDispStoreInsts               137666                       # Number of dispatched store instructions
system.cpu.iew.iewDispatchedInsts             1132088                       # Number of instructions dispatched to IQ
system.cpu.iew.iewExecLoadInsts                376934                       # Number of load instructions executed
system.cpu.iew.iewExecSquashedInsts              4250                       # Number of squashed instructions skipped in execute
system.cpu.iew.iewExecutedInsts               1106641                       # Number of executed instructions
system.cpu.iew.iewIQFullEvents                      1                       # Number of times the IQ has become full, causing a stall
system.cpu.iew.iewIdleCycles                        0                       # Number of cycles IEW is idle
system.cpu.iew.iewLSQFullEvents                 22762                       # Number of times the LSQ has become full, causing a stall
system.cpu.iew.iewSquashCycles                   3479                       # Number of cycles IEW is squashing
system.cpu.iew.iewUnblockCycles                 22743                       # Number of cycles IEW is unblocking
system.cpu.iew.lsq.thread0.blockedLoads             0                       # Number of blocked loads due to partial load-store forwarding
system.cpu.iew.lsq.thread0.cacheBlocked         20414                       # Number of times an access to memory failed due to the cache being blocked
system.cpu.iew.lsq.thread0.forwLoads              136                       # Number of loads that had data forwarded from stores
system.cpu.iew.lsq.thread0.ignoredResponses            2                       # Number of memory responses ignored because the instruction is squashed
system.cpu.iew.lsq.thread0.invAddrLoads             0                       # Number of loads ignored due to an invalid address
system.cpu.iew.lsq.thread0.invAddrSwpfs             0                       # Number of software prefetches ignored due to an invalid address
system.cpu.iew.lsq.thread0.memOrderViolation           33                       # Number of memory ordering violations
system.cpu.iew.lsq.thread0.rescheduledLoads           65                       # Number of loads that were rescheduled
system.cpu.iew.lsq.thread0.squashedLoads        18002                       # Number of loads squashed
system.cpu.iew.lsq.thread0.squashedStores        20806                       # Number of stores squashed
system.cpu.iew.memOrderViolationEvents             33                       # Number of memory order violations
system.cpu.iew.predictedNotTakenIncorrect         4039                       # Number of branches that were predicted not taken incorrectly
system.cpu.iew.predictedTakenIncorrect            470                       # Number of branches that were predicted taken incorrectly
system.cpu.iew.wb_consumers                   1263488                       # num instructions consuming a value
system.cpu.iew.wb_count                       1082398                       # cumulative count of insts written-back
system.cpu.iew.wb_fanout                     0.617787                       # average fanout of values written-back
system.cpu.iew.wb_producers                    780566                       # num instructions producing a value
system.cpu.iew.wb_rate                       1.198668                       # insts written-back per cycle
system.cpu.iew.wb_sent                        1096684                       # cumulative count of insts sent to commit
system.cpu.int_regfile_reads                  1508355                       # number of integer regfile reads
system.cpu.int_regfile_writes                  832817                       # number of integer regfile writes
system.cpu.ipc                               1.107418                       # IPC: Instructions Per Cycle
system.cpu.ipc_total                         1.107418                       # IPC: Total IPC of All Threads
system.cpu.iq.FU_type_0::No_OpClass                 5      0.00%      0.00% # Type of FU issued
system.cpu.iq.FU_type_0::IntAlu                600785     54.08%     54.08% # Type of FU issued
system.cpu.iq.FU_type_0::IntMult                   42      0.00%     54.09% # Type of FU issued
system.cpu.iq.FU_type_0::IntDiv                     3      0.00%     54.09% # Type of FU issued
system.cpu.iq.FU_type_0::FloatAdd                  12      0.00%     54.09% # Type of FU issued
system.cpu.iq.FU_type_0::FloatCmp                   1      0.00%     54.09% # Type of FU issued
system.cpu.iq.FU_type_0::FloatCvt                  11      0.00%     54.09% # Type of FU issued
system.cpu.iq.FU_type_0::FloatMult                  6      0.00%     54.09% # Type of FU issued
system.cpu.iq.FU_type_0::FloatMultAcc              16      0.00%     54.09% # Type of FU issued
system.cpu.iq.FU_type_0::FloatDiv                   8      0.00%     54.09% # Type of FU issued
system.cpu.iq.FU_type_0::FloatMisc                 11      0.00%     54.09% # Type of FU issued
system.cpu.iq.FU_type_0::FloatSqrt                  0      0.00%     54.09% # Type of FU issued
system.cpu.iq.FU_type_0::SimdAdd                   20      0.00%     54.09% # Type of FU issued
system.cpu.iq.FU_type_0::SimdAddAcc                 0      0.00%     54.09% # Type of FU issued
system.cpu.iq.FU_type_0::SimdAlu                   20      0.00%     54.10% # Type of FU issued
system.cpu.iq.FU_type_0::SimdCmp                   19      0.00%     54.10% # Type of FU issued
system.cpu.iq.FU_type_0::SimdCvt                    2      0.00%     54.10% # Type of FU issued
system.cpu.iq.FU_type_0::SimdMisc                  18      0.00%     54.10% # Type of FU issued
system.cpu.iq.FU_type_0::SimdMult                   0      0.00%     54.10% # Type of FU issued
system.cpu.iq.FU_type_0::SimdMultAcc                0      0.00%     54.10% # Type of FU issued
system.cpu.iq.FU_type_0::SimdShift                  0      0.00%     54.10% # Type of FU issued
system.cpu.iq.FU_type_0::SimdShiftAcc               0      0.00%     54.10% # Type of FU issued
system.cpu.iq.FU_type_0::SimdDiv                    0      0.00%     54.10% # Type of FU issued
system.cpu.iq.FU_type_0::SimdSqrt                   0      0.00%     54.10% # Type of FU issued
system.cpu.iq.FU_type_0::SimdFloatAdd               0      0.00%     54.10% # Type of FU issued
system.cpu.iq.FU_type_0::SimdFloatAlu               0      0.00%     54.10% # Type of FU issued
system.cpu.iq.FU_type_0::SimdFloatCmp               0      0.00%     54.10% # Type of FU issued
system.cpu.iq.FU_type_0::SimdFloatCvt               0      0.00%     54.10% # Type of FU issued
system.cpu.iq.FU_type_0::SimdFloatDiv               0      0.00%     54.10% # Type of FU issued
system.cpu.iq.FU_type_0::SimdFloatMisc              0      0.00%     54.10% # Type of FU issued
system.cpu.iq.FU_type_0::SimdFloatMult              0      0.00%     54.10% # Type of FU issued
system.cpu.iq.FU_type_0::SimdFloatMultAcc            0      0.00%     54.10% # Type of FU issued
system.cpu.iq.FU_type_0::SimdFloatSqrt              0      0.00%     54.10% # Type of FU issued
system.cpu.iq.FU_type_0::SimdReduceAdd              0      0.00%     54.10% # Type of FU issued
system.cpu.iq.FU_type_0::SimdReduceAlu              0      0.00%     54.10% # Type of FU issued
system.cpu.iq.FU_type_0::SimdReduceCmp              0      0.00%     54.10% # Type of FU issued
system.cpu.iq.FU_type_0::SimdFloatReduceAdd            0      0.00%     54.10% # Type of FU issued
system.cpu.iq.FU_type_0::SimdFloatReduceCmp            0      0.00%     54.10% # Type of FU issued
system.cpu.iq.FU_type_0::SimdAes                    0      0.00%     54.10% # Type of FU issued
system.cpu.iq.FU_type_0::SimdAesMix                 0      0.00%     54.10% # Type of FU issued
system.cpu.iq.FU_type_0::SimdSha1Hash               0      0.00%     54.10% # Type of FU issued
system.cpu.iq.FU_type_0::SimdSha1Hash2              0      0.00%     54.10% # Type of FU issued
system.cpu.iq.FU_type_0::SimdSha256Hash             0      0.00%     54.10% # Type of FU issued
system.cpu.iq.FU_type_0::SimdSha256Hash2            0      0.00%     54.10% # Type of FU issued
system.cpu.iq.FU_type_0::SimdShaSigma2              0      0.00%     54.10% # Type of FU issued
system.cpu.iq.FU_type_0::SimdShaSigma3              0      0.00%     54.10% # Type of FU issued
system.cpu.iq.FU_type_0::SimdPredAlu                0      0.00%     54.10% # Type of FU issued
system.cpu.iq.FU_type_0::MemRead               377957     34.02%     88.12% # Type of FU issued
system.cpu.iq.FU_type_0::MemWrite              131961     11.88%    100.00% # Type of FU issued
system.cpu.iq.FU_type_0::FloatMemRead               0      0.00%    100.00% # Type of FU issued
system.cpu.iq.FU_type_0::FloatMemWrite              0      0.00%    100.00% # Type of FU issued
system.cpu.iq.FU_type_0::IprAccess                  0      0.00%    100.00% # Type of FU issued
system.cpu.iq.FU_type_0::InstPrefetch               0      0.00%    100.00% # Type of FU issued
system.cpu.iq.FU_type_0::total                1110897                       # Type of FU issued
system.cpu.iq.fp_alu_accesses                       0                       # Number of floating point alu accesses
system.cpu.iq.fp_inst_queue_reads                   0                       # Number of floating instruction queue reads
system.cpu.iq.fp_inst_queue_wakeup_accesses            0                       # Number of floating instruction queue wakeup accesses
system.cpu.iq.fp_inst_queue_writes                  0                       # Number of floating instruction queue writes
system.cpu.iq.fu_busy_cnt                       17350                       # FU busy when requested
system.cpu.iq.fu_busy_rate                   0.015618                       # FU busy rate (busy events/executed inst)
system.cpu.iq.fu_full::No_OpClass                   0      0.00%      0.00% # attempts to use FU when none available
system.cpu.iq.fu_full::IntAlu                     154      0.89%      0.89% # attempts to use FU when none available
system.cpu.iq.fu_full::IntMult                      0      0.00%      0.89% # attempts to use FU when none available
system.cpu.iq.fu_full::IntDiv                       0      0.00%      0.89% # attempts to use FU when none available
system.cpu.iq.fu_full::FloatAdd                     0      0.00%      0.89% # attempts to use FU when none available
system.cpu.iq.fu_full::FloatCmp                     0      0.00%      0.89% # attempts to use FU when none available
system.cpu.iq.fu_full::FloatCvt                     0      0.00%      0.89% # attempts to use FU when none available
system.cpu.iq.fu_full::FloatMult                   14      0.08%      0.97% # attempts to use FU when none available
system.cpu.iq.fu_full::FloatMultAcc                 0      0.00%      0.97% # attempts to use FU when none available
system.cpu.iq.fu_full::FloatDiv                    21      0.12%      1.09% # attempts to use FU when none available
system.cpu.iq.fu_full::FloatMisc                    1      0.01%      1.10% # attempts to use FU when none available
system.cpu.iq.fu_full::FloatSqrt                    0      0.00%      1.10% # attempts to use FU when none available
system.cpu.iq.fu_full::SimdAdd                      0      0.00%      1.10% # attempts to use FU when none available
system.cpu.iq.fu_full::SimdAddAcc                   0      0.00%      1.10% # attempts to use FU when none available
system.cpu.iq.fu_full::SimdAlu                      1      0.01%      1.10% # attempts to use FU when none available
system.cpu.iq.fu_full::SimdCmp                      0      0.00%      1.10% # attempts to use FU when none available
system.cpu.iq.fu_full::SimdCvt                      0      0.00%      1.10% # attempts to use FU when none available
system.cpu.iq.fu_full::SimdMisc                     0      0.00%      1.10% # attempts to use FU when none available
system.cpu.iq.fu_full::SimdMult                     0      0.00%      1.10% # attempts to use FU when none available
system.cpu.iq.fu_full::SimdMultAcc                  0      0.00%      1.10% # attempts to use FU when none available
system.cpu.iq.fu_full::SimdShift                    0      0.00%      1.10% # attempts to use FU when none available
system.cpu.iq.fu_full::SimdShiftAcc                 0      0.00%      1.10% # attempts to use FU when none available
system.cpu.iq.fu_full::SimdDiv                      0      0.00%      1.10% # attempts to use FU when none available
system.cpu.iq.fu_full::SimdSqrt                     0      0.00%      1.10% # attempts to use FU when none available
system.cpu.iq.fu_full::SimdFloatAdd                 0      0.00%      1.10% # attempts to use FU when none available
system.cpu.iq.fu_full::SimdFloatAlu                 0      0.00%      1.10% # attempts to use FU when none available
system.cpu.iq.fu_full::SimdFloatCmp                 0      0.00%      1.10% # attempts to use FU when none available
system.cpu.iq.fu_full::SimdFloatCvt                 0      0.00%      1.10% # attempts to use FU when none available
system.cpu.iq.fu_full::SimdFloatDiv                 0      0.00%      1.10% # attempts to use FU when none available
system.cpu.iq.fu_full::SimdFloatMisc                0      0.00%      1.10% # attempts to use FU when none available
system.cpu.iq.fu_full::SimdFloatMult                0      0.00%      1.10% # attempts to use FU when none available
system.cpu.iq.fu_full::SimdFloatMultAcc             0      0.00%      1.10% # attempts to use FU when none available
system.cpu.iq.fu_full::SimdFloatSqrt                0      0.00%      1.10% # attempts to use FU when none available
system.cpu.iq.fu_full::SimdReduceAdd                0      0.00%      1.10% # attempts to use FU when none available
system.cpu.iq.fu_full::SimdReduceAlu                0      0.00%      1.10% # attempts to use FU when none available
system.cpu.iq.fu_full::SimdReduceCmp                0      0.00%      1.10% # attempts to use FU when none available
system.cpu.iq.fu_full::SimdFloatReduceAdd            0      0.00%      1.10% # attempts to use FU when none available
system.cpu.iq.fu_full::SimdFloatReduceCmp            0      0.00%      1.10% # attempts to use FU when none available
system.cpu.iq.fu_full::SimdAes                      0      0.00%      1.10% # attempts to use FU when none available
system.cpu.iq.fu_full::SimdAesMix                   0      0.00%      1.10% # attempts to use FU when none available
system.cpu.iq.fu_full::SimdSha1Hash                 0      0.00%      1.10% # attempts to use FU when none available
system.cpu.iq.fu_full::SimdSha1Hash2                0      0.00%      1.10% # attempts to use FU when none available
system.cpu.iq.fu_full::SimdSha256Hash               0      0.00%      1.10% # attempts to use FU when none available
system.cpu.iq.fu_full::SimdSha256Hash2              0      0.00%      1.10% # attempts to use FU when none available
system.cpu.iq.fu_full::SimdShaSigma2                0      0.00%      1.10% # attempts to use FU when none available
system.cpu.iq.fu_full::SimdShaSigma3                0      0.00%      1.10% # attempts to use FU when none available
system.cpu.iq.fu_full::SimdPredAlu                  0      0.00%      1.10% # attempts to use FU when none available
system.cpu.iq.fu_full::MemRead                  15468     89.15%     90.25% # attempts to use FU when none available
system.cpu.iq.fu_full::MemWrite                  1691      9.75%    100.00% # attempts to use FU when none available
system.cpu.iq.fu_full::FloatMemRead                 0      0.00%    100.00% # attempts to use FU when none available
system.cpu.iq.fu_full::FloatMemWrite                0      0.00%    100.00% # attempts to use FU when none available
system.cpu.iq.fu_full::IprAccess                    0      0.00%    100.00% # attempts to use FU when none available
system.cpu.iq.fu_full::InstPrefetch                 0      0.00%    100.00% # attempts to use FU when none available
system.cpu.iq.int_alu_accesses                1126701                       # Number of integer alu accesses
system.cpu.iq.int_inst_queue_reads            3080129                       # Number of integer instruction queue reads
system.cpu.iq.int_inst_queue_wakeup_accesses      1081743                       # Number of integer instruction queue wakeup accesses
system.cpu.iq.int_inst_queue_writes           1253692                       # Number of integer instruction queue writes
system.cpu.iq.iqInstsAdded                    1131201                       # Number of instructions added to the IQ (excludes non-spec)
system.cpu.iq.iqInstsIssued                   1110897                       # Number of instructions issued
system.cpu.iq.iqNonSpecInstsAdded                 129                       # Number of non-speculative instructions added to the IQ
system.cpu.iq.iqSquashedInstsExamined          127306                       # Number of squashed instructions iterated over during squash; mainly for profiling
system.cpu.iq.iqSquashedInstsIssued               855                       # Number of squashed instructions issued
system.cpu.iq.iqSquashedNonSpecRemoved             45                       # Number of squashed non-spec instructions that were removed
system.cpu.iq.iqSquashedOperandsExamined       123683                       # Number of squashed operands that are examined and possibly removed from graph
system.cpu.iq.issued_per_cycle::samples        843691                       # Number of insts issued each cycle
system.cpu.iq.issued_per_cycle::mean         1.316711                       # Number of insts issued each cycle
system.cpu.iq.issued_per_cycle::stdev        2.247100                       # Number of insts issued each cycle
system.cpu.iq.issued_per_cycle::underflows            0      0.00%      0.00% # Number of insts issued each cycle
system.cpu.iq.issued_per_cycle::0              578664     68.59%     68.59% # Number of insts issued each cycle
system.cpu.iq.issued_per_cycle::1               37402      4.43%     73.02% # Number of insts issued each cycle
system.cpu.iq.issued_per_cycle::2               12698      1.51%     74.53% # Number of insts issued each cycle
system.cpu.iq.issued_per_cycle::3               50585      6.00%     80.52% # Number of insts issued each cycle
system.cpu.iq.issued_per_cycle::4               50704      6.01%     86.53% # Number of insts issued each cycle
system.cpu.iq.issued_per_cycle::5               45481      5.39%     91.92% # Number of insts issued each cycle
system.cpu.iq.issued_per_cycle::6               28053      3.33%     95.25% # Number of insts issued each cycle
system.cpu.iq.issued_per_cycle::7               23027      2.73%     97.98% # Number of insts issued each cycle
system.cpu.iq.issued_per_cycle::8               17077      2.02%    100.00% # Number of insts issued each cycle
system.cpu.iq.issued_per_cycle::overflows            0      0.00%    100.00% # Number of insts issued each cycle
system.cpu.iq.issued_per_cycle::min_value            0                       # Number of insts issued each cycle
system.cpu.iq.issued_per_cycle::max_value            8                       # Number of insts issued each cycle
system.cpu.iq.issued_per_cycle::total          843691                       # Number of insts issued each cycle
system.cpu.iq.rate                           1.230228                       # Inst issue rate
system.cpu.iq.vec_alu_accesses                   1541                       # Number of vector alu accesses
system.cpu.iq.vec_inst_queue_reads               3555                       # Number of vector instruction queue reads
system.cpu.iq.vec_inst_queue_wakeup_accesses          655                       # Number of vector instruction queue wakeup accesses
system.cpu.iq.vec_inst_queue_writes              4975                       # Number of vector instruction queue writes
system.cpu.itb.accesses                             0                       # DTB accesses
system.cpu.itb.align_faults                         0                       # Number of TLB faults due to alignment restrictions
system.cpu.itb.domain_faults                        0                       # Number of TLB faults due to domain restrictions
system.cpu.itb.flush_entries                        0                       # Number of entries that have been flushed from TLB
system.cpu.itb.flush_tlb                            0                       # Number of times complete TLB was flushed
system.cpu.itb.flush_tlb_asid                       0                       # Number of times TLB was flushed by ASID
system.cpu.itb.flush_tlb_mva                        0                       # Number of times TLB was flushed by MVA
system.cpu.itb.flush_tlb_mva_asid                   0                       # Number of times TLB was flushed by MVA & ASID
system.cpu.itb.hits                                 0                       # DTB hits
system.cpu.itb.inst_accesses                        0                       # ITB inst accesses
system.cpu.itb.inst_hits                            0                       # ITB inst hits
system.cpu.itb.inst_misses                          0                       # ITB inst misses
system.cpu.itb.misses                               0                       # DTB misses
system.cpu.itb.perms_faults                         0                       # Number of TLB faults due to permissions restrictions
system.cpu.itb.prefetch_faults                      0                       # Number of TLB faults due to prefetch
system.cpu.itb.read_accesses                        0                       # DTB read accesses
system.cpu.itb.read_hits                            0                       # DTB read hits
system.cpu.itb.read_misses                          0                       # DTB read misses
system.cpu.itb.stage2_mmu.stage2_tlb.accesses            0                       # DTB accesses
system.cpu.itb.stage2_mmu.stage2_tlb.align_faults            0                       # Number of TLB faults due to alignment restrictions
system.cpu.itb.stage2_mmu.stage2_tlb.domain_faults            0                       # Number of TLB faults due to domain restrictions
system.cpu.itb.stage2_mmu.stage2_tlb.flush_entries            0                       # Number of entries that have been flushed from TLB
system.cpu.itb.stage2_mmu.stage2_tlb.flush_tlb            0                       # Number of times complete TLB was flushed
system.cpu.itb.stage2_mmu.stage2_tlb.flush_tlb_asid            0                       # Number of times TLB was flushed by ASID
system.cpu.itb.stage2_mmu.stage2_tlb.flush_tlb_mva            0                       # Number of times TLB was flushed by MVA
system.cpu.itb.stage2_mmu.stage2_tlb.flush_tlb_mva_asid            0                       # Number of times TLB was flushed by MVA & ASID
system.cpu.itb.stage2_mmu.stage2_tlb.hits            0                       # DTB hits
system.cpu.itb.stage2_mmu.stage2_tlb.inst_accesses            0                       # ITB inst accesses
system.cpu.itb.stage2_mmu.stage2_tlb.inst_hits            0                       # ITB inst hits
system.cpu.itb.stage2_mmu.stage2_tlb.inst_misses            0                       # ITB inst misses
system.cpu.itb.stage2_mmu.stage2_tlb.misses            0                       # DTB misses
system.cpu.itb.stage2_mmu.stage2_tlb.perms_faults            0                       # Number of TLB faults due to permissions restrictions
system.cpu.itb.stage2_mmu.stage2_tlb.prefetch_faults            0                       # Number of TLB faults due to prefetch
system.cpu.itb.stage2_mmu.stage2_tlb.read_accesses            0                       # DTB read accesses
system.cpu.itb.stage2_mmu.stage2_tlb.read_hits            0                       # DTB read hits
system.cpu.itb.stage2_mmu.stage2_tlb.read_misses            0                       # DTB read misses
system.cpu.itb.stage2_mmu.stage2_tlb.walker.walkRequestOrigin_Requested::Data            0                       # Table walker requests started/completed, data/inst
system.cpu.itb.stage2_mmu.stage2_tlb.walker.walkRequestOrigin_Requested::Inst            0                       # Table walker requests started/completed, data/inst
system.cpu.itb.stage2_mmu.stage2_tlb.walker.walkRequestOrigin_Requested::total            0                       # Table walker requests started/completed, data/inst
system.cpu.itb.stage2_mmu.stage2_tlb.walker.walkRequestOrigin_Completed::Data            0                       # Table walker requests started/completed, data/inst
system.cpu.itb.stage2_mmu.stage2_tlb.walker.walkRequestOrigin_Completed::Inst            0                       # Table walker requests started/completed, data/inst
system.cpu.itb.stage2_mmu.stage2_tlb.walker.walkRequestOrigin_Completed::total            0                       # Table walker requests started/completed, data/inst
system.cpu.itb.stage2_mmu.stage2_tlb.walker.walkRequestOrigin::total            0                       # Table walker requests started/completed, data/inst
system.cpu.itb.stage2_mmu.stage2_tlb.walker.walks            0                       # Table walker walks requested
system.cpu.itb.stage2_mmu.stage2_tlb.write_accesses            0                       # DTB write accesses
system.cpu.itb.stage2_mmu.stage2_tlb.write_hits            0                       # DTB write hits
system.cpu.itb.stage2_mmu.stage2_tlb.write_misses            0                       # DTB write misses
system.cpu.itb.walker.walkRequestOrigin_Requested::Data            0                       # Table walker requests started/completed, data/inst
system.cpu.itb.walker.walkRequestOrigin_Requested::Inst            0                       # Table walker requests started/completed, data/inst
system.cpu.itb.walker.walkRequestOrigin_Requested::total            0                       # Table walker requests started/completed, data/inst
system.cpu.itb.walker.walkRequestOrigin_Completed::Data            0                       # Table walker requests started/completed, data/inst
system.cpu.itb.walker.walkRequestOrigin_Completed::Inst            0                       # Table walker requests started/completed, data/inst
system.cpu.itb.walker.walkRequestOrigin_Completed::total            0                       # Table walker requests started/completed, data/inst
system.cpu.itb.walker.walkRequestOrigin::total            0                       # Table walker requests started/completed, data/inst
system.cpu.itb.walker.walks                         0                       # Table walker walks requested
system.cpu.itb.write_accesses                       0                       # DTB write accesses
system.cpu.itb.write_hits                           0                       # DTB write hits
system.cpu.itb.write_misses                         0                       # DTB write misses
system.cpu.memDep0.conflictingLoads               122                       # Number of conflicting loads.
system.cpu.memDep0.conflictingStores             1064                       # Number of conflicting stores.
system.cpu.memDep0.insertedLoads               373417                       # Number of loads inserted to the mem dependence unit.
system.cpu.memDep0.insertedStores              137666                       # Number of stores inserted to the mem dependence unit.
system.cpu.misc_regfile_reads                 1049250                       # number of misc regfile reads
system.cpu.misc_regfile_writes                    288                       # number of misc regfile writes
system.cpu.numCycles                           903001                       # number of cpu cycles simulated
system.cpu.numWorkItemsCompleted                    0                       # number of work items this cpu completed
system.cpu.numWorkItemsStarted                      0                       # number of work items this cpu started
system.cpu.rename.BlockCycles                   40616                       # Number of cycles rename is blocking
system.cpu.rename.CommittedMaps               1118217                       # Number of HB maps that are committed
system.cpu.rename.IQFullEvents                    344                       # Number of times rename has blocked due to IQ full
system.cpu.rename.IdleCycles                    64182                       # Number of cycles rename is idle
system.cpu.rename.LQFullEvents                 207689                       # Number of times rename has blocked due to LQ full
system.cpu.rename.ROBFullEvents                     7                       # Number of times rename has blocked due to ROB full
system.cpu.rename.RenameLookups               2125256                       # Number of register rename lookups that rename has made
system.cpu.rename.RenamedInsts                1142754                       # Number of instructions processed by rename
system.cpu.rename.RenamedOperands             1277643                       # Number of destination operands rename has renamed
system.cpu.rename.RunCycles                    158860                       # Number of cycles rename is running
system.cpu.rename.SQFullEvents                 352087                       # Number of times rename has blocked due to SQ full
system.cpu.rename.SquashCycles                   3479                       # Number of cycles rename is squashing
system.cpu.rename.UnblockCycles                568976                       # Number of cycles rename is unblocking
system.cpu.rename.UndoneMaps                   159364                       # Number of HB maps that are undone due to squashing
system.cpu.rename.int_rename_lookups          1556297                       # Number of integer rename lookups
system.cpu.rename.serializeStallCycles           7578                       # count of cycles rename stalled for serializing inst
system.cpu.rename.serializingInsts                292                       # count of serializing insts renamed
system.cpu.rename.skidInsts                    147302                       # count of insts added to the skid buffer
system.cpu.rename.tempSerializingInsts            145                       # count of temporary serializing insts renamed
system.cpu.rename.vec_rename_lookups             2951                       # Number of vector rename lookups
system.cpu.rob.rob_reads                      1859990                       # The number of ROB reads
system.cpu.rob.rob_writes                     2278915                       # The number of ROB writes
system.cpu.timesIdled                             592                       # Number of times that the entire CPU went into an idle state and unscheduled itself
system.cpu.vec_regfile_reads                      753                       # number of vector regfile reads
system.cpu.vec_regfile_writes                     172                       # number of vector regfile writes
system.cpu.workload.numSyscalls                    25                       # Number of system calls
system.membus.snoop_filter.hit_multi_requests            0                       # Number of requests hitting in the snoop filter with multiple (>1) holders of the requested data.
system.membus.snoop_filter.hit_multi_snoops            0                       # Number of snoops hitting in the snoop filter with multiple (>1) holders of the requested data.
system.membus.snoop_filter.hit_single_requests            3                       # Number of requests hitting in the snoop filter with a single holder of the requested data.
system.membus.snoop_filter.hit_single_snoops            0                       # Number of snoops hitting in the snoop filter with a single holder of the requested data.
system.membus.snoop_filter.tot_requests         26912                       # Total number of requests made to the snoop filter.
system.membus.snoop_filter.tot_snoops               0                       # Total number of snoops made to the snoop filter.
system.tol2bus.snoop_filter.hit_multi_requests            1                       # Number of requests hitting in the snoop filter with multiple (>1) holders of the requested data.
system.tol2bus.snoop_filter.hit_multi_snoops            0                       # Number of snoops hitting in the snoop filter with multiple (>1) holders of the requested data.
system.tol2bus.snoop_filter.hit_single_requests        29637                       # Number of requests hitting in the snoop filter with a single holder of the requested data.
system.tol2bus.snoop_filter.hit_single_snoops            2                       # Number of snoops hitting in the snoop filter with a single holder of the requested data.
system.tol2bus.snoop_filter.tot_requests        60555                       # Total number of requests made to the snoop filter.
system.tol2bus.snoop_filter.tot_snoops              2                       # Total number of snoops made to the snoop filter.
system.membus.trans_dist::ReadResp               2182                       # Transaction distribution
system.membus.trans_dist::CleanEvict                3                       # Transaction distribution
system.membus.trans_dist::ReadExReq               147                       # Transaction distribution
system.membus.trans_dist::ReadExResp              147                       # Transaction distribution
system.membus.trans_dist::ReadSharedReq          2182                       # Transaction distribution
system.membus.trans_dist::InvalidateReq         24580                       # Transaction distribution
system.membus.pkt_count_system.l2.mem_side::system.mem_ctrls.port        29241                       # Packet count per connected master and slave (bytes)
system.membus.pkt_count::total                  29241                       # Packet count per connected master and slave (bytes)
system.membus.pkt_size_system.l2.mem_side::system.mem_ctrls.port       149056                       # Cumulative packet size per connected master and slave (bytes)
system.membus.pkt_size::total                  149056                       # Cumulative packet size per connected master and slave (bytes)
system.membus.snoops                                0                       # Total snoops (count)
system.membus.snoopTraffic                          0                       # Total snoop traffic (bytes)
system.membus.snoop_fanout::samples             26909                       # Request fanout histogram
system.membus.snoop_fanout::mean                    0                       # Request fanout histogram
system.membus.snoop_fanout::stdev                   0                       # Request fanout histogram
system.membus.snoop_fanout::underflows              0      0.00%      0.00% # Request fanout histogram
system.membus.snoop_fanout::0                   26909    100.00%    100.00% # Request fanout histogram
system.membus.snoop_fanout::1                       0      0.00%    100.00% # Request fanout histogram
system.membus.snoop_fanout::overflows               0      0.00%    100.00% # Request fanout histogram
system.membus.snoop_fanout::min_value               0                       # Request fanout histogram
system.membus.snoop_fanout::max_value               0                       # Request fanout histogram
system.membus.snoop_fanout::total               26909                       # Request fanout histogram
system.membus.reqLayer0.occupancy            28879500                       # Layer occupancy (ticks)
system.membus.reqLayer0.utilization               6.4                       # Layer utilization (%)
system.membus.respLayer1.occupancy           12299000                       # Layer occupancy (ticks)
system.membus.respLayer1.utilization              2.7                       # Layer utilization (%)
system.membus.power_state.pwrStateResidencyTicks::UNDEFINED    451500000                       # Cumulative time (in ticks) in various power states
system.tol2bus.trans_dist::ReadResp              2416                       # Transaction distribution
system.tol2bus.trans_dist::WritebackDirty        27887                       # Transaction distribution
system.tol2bus.trans_dist::WritebackClean          664                       # Transaction distribution
system.tol2bus.trans_dist::CleanEvict            1091                       # Transaction distribution
system.tol2bus.trans_dist::ReadExReq             3922                       # Transaction distribution
system.tol2bus.trans_dist::ReadExResp            3921                       # Transaction distribution
system.tol2bus.trans_dist::ReadCleanReq           920                       # Transaction distribution
system.tol2bus.trans_dist::ReadSharedReq         1496                       # Transaction distribution
system.tol2bus.trans_dist::InvalidateReq        24580                       # Transaction distribution
system.tol2bus.trans_dist::InvalidateResp        24580                       # Transaction distribution
system.tol2bus.pkt_count_system.cpu.icache.mem_side::system.l2.cpu_side         2504                       # Packet count per connected master and slave (bytes)
system.tol2bus.pkt_count_system.cpu.dcache.mem_side::system.l2.cpu_side        88968                       # Packet count per connected master and slave (bytes)
system.tol2bus.pkt_count::total                 91472                       # Packet count per connected master and slave (bytes)
system.tol2bus.pkt_size_system.cpu.icache.mem_side::system.l2.cpu_side       101376                       # Cumulative packet size per connected master and slave (bytes)
system.tol2bus.pkt_size_system.cpu.dcache.mem_side::system.l2.cpu_side      2131456                       # Cumulative packet size per connected master and slave (bytes)
system.tol2bus.pkt_size::total                2232832                       # Cumulative packet size per connected master and slave (bytes)
system.tol2bus.snoops                               5                       # Total snoops (count)
system.tol2bus.snoopTraffic                         0                       # Total snoop traffic (bytes)
system.tol2bus.snoop_fanout::samples            30923                       # Request fanout histogram
system.tol2bus.snoop_fanout::mean            0.000097                       # Request fanout histogram
system.tol2bus.snoop_fanout::stdev           0.009849                       # Request fanout histogram
system.tol2bus.snoop_fanout::underflows             0      0.00%      0.00% # Request fanout histogram
system.tol2bus.snoop_fanout::0                  30920     99.99%     99.99% # Request fanout histogram
system.tol2bus.snoop_fanout::1                      3      0.01%    100.00% # Request fanout histogram
system.tol2bus.snoop_fanout::2                      0      0.00%    100.00% # Request fanout histogram
system.tol2bus.snoop_fanout::overflows              0      0.00%    100.00% # Request fanout histogram
system.tol2bus.snoop_fanout::min_value              0                       # Request fanout histogram
system.tol2bus.snoop_fanout::max_value              1                       # Request fanout histogram
system.tol2bus.snoop_fanout::total              30923                       # Request fanout histogram
system.tol2bus.reqLayer0.occupancy           58828500                       # Layer occupancy (ticks)
system.tol2bus.reqLayer0.utilization             13.0                       # Layer utilization (%)
system.tol2bus.respLayer1.occupancy          20415500                       # Layer occupancy (ticks)
system.tol2bus.respLayer1.utilization             4.5                       # Layer utilization (%)
system.tol2bus.respLayer0.occupancy           1380499                       # Layer occupancy (ticks)
system.tol2bus.respLayer0.utilization             0.3                       # Layer utilization (%)
system.tol2bus.power_state.pwrStateResidencyTicks::UNDEFINED    451500000                       # Cumulative time (in ticks) in various power states
system.voltage_domain.voltage                       1                       # Voltage in Volts
system.clk_domain.clock                          1000                       # Clock period in ticks
system.l2.demand_hits::.cpu.inst                  209                       # number of demand (read+write) hits
system.l2.demand_hits::.cpu.data                 3800                       # number of demand (read+write) hits
system.l2.demand_hits::total                     4009                       # number of demand (read+write) hits
system.l2.overall_hits::.cpu.inst                 209                       # number of overall hits
system.l2.overall_hits::.cpu.data                3800                       # number of overall hits
system.l2.overall_hits::total                    4009                       # number of overall hits
system.l2.demand_misses::.cpu.inst                711                       # number of demand (read+write) misses
system.l2.demand_misses::.cpu.data               1618                       # number of demand (read+write) misses
system.l2.demand_misses::total                   2329                       # number of demand (read+write) misses
system.l2.overall_misses::.cpu.inst               711                       # number of overall misses
system.l2.overall_misses::.cpu.data              1618                       # number of overall misses
system.l2.overall_misses::total                  2329                       # number of overall misses
system.l2.demand_miss_latency::.cpu.inst     56544000                       # number of demand (read+write) miss cycles
system.l2.demand_miss_latency::.cpu.data    122647000                       # number of demand (read+write) miss cycles
system.l2.demand_miss_latency::total        179191000                       # number of demand (read+write) miss cycles
system.l2.overall_miss_latency::.cpu.inst     56544000                       # number of overall miss cycles
system.l2.overall_miss_latency::.cpu.data    122647000                       # number of overall miss cycles
system.l2.overall_miss_latency::total       179191000                       # number of overall miss cycles
system.l2.demand_accesses::.cpu.inst              920                       # number of demand (read+write) accesses
system.l2.demand_accesses::.cpu.data             5418                       # number of demand (read+write) accesses
system.l2.demand_accesses::total                 6338                       # number of demand (read+write) accesses
system.l2.overall_accesses::.cpu.inst             920                       # number of overall (read+write) accesses
system.l2.overall_accesses::.cpu.data            5418                       # number of overall (read+write) accesses
system.l2.overall_accesses::total                6338                       # number of overall (read+write) accesses
system.l2.demand_miss_rate::.cpu.inst        0.772826                       # miss rate for demand accesses
system.l2.demand_miss_rate::.cpu.data        0.298634                       # miss rate for demand accesses
system.l2.demand_miss_rate::total            0.367466                       # miss rate for demand accesses
system.l2.overall_miss_rate::.cpu.inst       0.772826                       # miss rate for overall accesses
system.l2.overall_miss_rate::.cpu.data       0.298634                       # miss rate for overall accesses
system.l2.overall_miss_rate::total           0.367466                       # miss rate for overall accesses
system.l2.demand_avg_miss_latency::.cpu.inst 79527.426160                       # average overall miss latency
system.l2.demand_avg_miss_latency::.cpu.data 75801.606922                       # average overall miss latency
system.l2.demand_avg_miss_latency::total 76939.029626                       # average overall miss latency
system.l2.overall_avg_miss_latency::.cpu.inst 79527.426160                       # average overall miss latency
system.l2.overall_avg_miss_latency::.cpu.data 75801.606922                       # average overall miss latency
system.l2.overall_avg_miss_latency::total 76939.029626                       # average overall miss latency
system.l2.blocked_cycles::no_mshrs                  0                       # number of cycles access was blocked
system.l2.blocked_cycles::no_targets                0                       # number of cycles access was blocked
system.l2.blocked::no_mshrs                         0                       # number of cycles access was blocked
system.l2.blocked::no_targets                       0                       # number of cycles access was blocked
system.l2.avg_blocked_cycles::no_mshrs            nan                       # average number of cycles each access was blocked
system.l2.avg_blocked_cycles::no_targets          nan                       # average number of cycles each access was blocked
system.l2.demand_mshr_misses::.cpu.inst           711                       # number of demand (read+write) MSHR misses
system.l2.demand_mshr_misses::.cpu.data          1618                       # number of demand (read+write) MSHR misses
system.l2.demand_mshr_misses::total              2329                       # number of demand (read+write) MSHR misses
system.l2.overall_mshr_misses::.cpu.inst          711                       # number of overall MSHR misses
system.l2.overall_mshr_misses::.cpu.data         1618                       # number of overall MSHR misses
system.l2.overall_mshr_misses::total             2329                       # number of overall MSHR misses
system.l2.demand_mshr_miss_latency::.cpu.inst     49434000                       # number of demand (read+write) MSHR miss cycles
system.l2.demand_mshr_miss_latency::.cpu.data    106467000                       # number of demand (read+write) MSHR miss cycles
system.l2.demand_mshr_miss_latency::total    155901000                       # number of demand (read+write) MSHR miss cycles
system.l2.overall_mshr_miss_latency::.cpu.inst     49434000                       # number of overall MSHR miss cycles
system.l2.overall_mshr_miss_latency::.cpu.data    106467000                       # number of overall MSHR miss cycles
system.l2.overall_mshr_miss_latency::total    155901000                       # number of overall MSHR miss cycles
system.l2.demand_mshr_miss_rate::.cpu.inst     0.772826                       # mshr miss rate for demand accesses
system.l2.demand_mshr_miss_rate::.cpu.data     0.298634                       # mshr miss rate for demand accesses
system.l2.demand_mshr_miss_rate::total       0.367466                       # mshr miss rate for demand accesses
system.l2.overall_mshr_miss_rate::.cpu.inst     0.772826                       # mshr miss rate for overall accesses
system.l2.overall_mshr_miss_rate::.cpu.data     0.298634                       # mshr miss rate for overall accesses
system.l2.overall_mshr_miss_rate::total      0.367466                       # mshr miss rate for overall accesses
system.l2.demand_avg_mshr_miss_latency::.cpu.inst 69527.426160                       # average overall mshr miss latency
system.l2.demand_avg_mshr_miss_latency::.cpu.data 65801.606922                       # average overall mshr miss latency
system.l2.demand_avg_mshr_miss_latency::total 66939.029626                       # average overall mshr miss latency
system.l2.overall_avg_mshr_miss_latency::.cpu.inst 69527.426160                       # average overall mshr miss latency
system.l2.overall_avg_mshr_miss_latency::.cpu.data 65801.606922                       # average overall mshr miss latency
system.l2.overall_avg_mshr_miss_latency::total 66939.029626                       # average overall mshr miss latency
system.l2.replacements                              5                       # number of replacements
system.l2.WritebackDirty_hits::.writebacks        27887                       # number of WritebackDirty hits
system.l2.WritebackDirty_hits::total            27887                       # number of WritebackDirty hits
system.l2.WritebackDirty_accesses::.writebacks        27887                       # number of WritebackDirty accesses(hits+misses)
system.l2.WritebackDirty_accesses::total        27887                       # number of WritebackDirty accesses(hits+misses)
system.l2.WritebackClean_hits::.writebacks          663                       # number of WritebackClean hits
system.l2.WritebackClean_hits::total              663                       # number of WritebackClean hits
system.l2.WritebackClean_accesses::.writebacks          663                       # number of WritebackClean accesses(hits+misses)
system.l2.WritebackClean_accesses::total          663                       # number of WritebackClean accesses(hits+misses)
system.l2.ReadExReq_hits::.cpu.data              3775                       # number of ReadExReq hits
system.l2.ReadExReq_hits::total                  3775                       # number of ReadExReq hits
system.l2.ReadExReq_misses::.cpu.data             147                       # number of ReadExReq misses
system.l2.ReadExReq_misses::total                 147                       # number of ReadExReq misses
system.l2.ReadExReq_miss_latency::.cpu.data     11817500                       # number of ReadExReq miss cycles
system.l2.ReadExReq_miss_latency::total      11817500                       # number of ReadExReq miss cycles
system.l2.ReadExReq_accesses::.cpu.data          3922                       # number of ReadExReq accesses(hits+misses)
system.l2.ReadExReq_accesses::total              3922                       # number of ReadExReq accesses(hits+misses)
system.l2.ReadExReq_miss_rate::.cpu.data     0.037481                       # miss rate for ReadExReq accesses
system.l2.ReadExReq_miss_rate::total         0.037481                       # miss rate for ReadExReq accesses
system.l2.ReadExReq_avg_miss_latency::.cpu.data 80391.156463                       # average ReadExReq miss latency
system.l2.ReadExReq_avg_miss_latency::total 80391.156463                       # average ReadExReq miss latency
system.l2.ReadExReq_mshr_misses::.cpu.data          147                       # number of ReadExReq MSHR misses
system.l2.ReadExReq_mshr_misses::total            147                       # number of ReadExReq MSHR misses
system.l2.ReadExReq_mshr_miss_latency::.cpu.data     10347500                       # number of ReadExReq MSHR miss cycles
system.l2.ReadExReq_mshr_miss_latency::total     10347500                       # number of ReadExReq MSHR miss cycles
system.l2.ReadExReq_mshr_miss_rate::.cpu.data     0.037481                       # mshr miss rate for ReadExReq accesses
system.l2.ReadExReq_mshr_miss_rate::total     0.037481                       # mshr miss rate for ReadExReq accesses
system.l2.ReadExReq_avg_mshr_miss_latency::.cpu.data 70391.156463                       # average ReadExReq mshr miss latency
system.l2.ReadExReq_avg_mshr_miss_latency::total 70391.156463                       # average ReadExReq mshr miss latency
system.l2.ReadCleanReq_hits::.cpu.inst            209                       # number of ReadCleanReq hits
system.l2.ReadCleanReq_hits::total                209                       # number of ReadCleanReq hits
system.l2.ReadCleanReq_misses::.cpu.inst          711                       # number of ReadCleanReq misses
system.l2.ReadCleanReq_misses::total              711                       # number of ReadCleanReq misses
system.l2.ReadCleanReq_miss_latency::.cpu.inst     56544000                       # number of ReadCleanReq miss cycles
system.l2.ReadCleanReq_miss_latency::total     56544000                       # number of ReadCleanReq miss cycles
system.l2.ReadCleanReq_accesses::.cpu.inst          920                       # number of ReadCleanReq accesses(hits+misses)
system.l2.ReadCleanReq_accesses::total            920                       # number of ReadCleanReq accesses(hits+misses)
system.l2.ReadCleanReq_miss_rate::.cpu.inst     0.772826                       # miss rate for ReadCleanReq accesses
system.l2.ReadCleanReq_miss_rate::total      0.772826                       # miss rate for ReadCleanReq accesses
system.l2.ReadCleanReq_avg_miss_latency::.cpu.inst 79527.426160                       # average ReadCleanReq miss latency
system.l2.ReadCleanReq_avg_miss_latency::total 79527.426160                       # average ReadCleanReq miss latency
system.l2.ReadCleanReq_mshr_misses::.cpu.inst          711                       # number of ReadCleanReq MSHR misses
system.l2.ReadCleanReq_mshr_misses::total          711                       # number of ReadCleanReq MSHR misses
system.l2.ReadCleanReq_mshr_miss_latency::.cpu.inst     49434000                       # number of ReadCleanReq MSHR miss cycles
system.l2.ReadCleanReq_mshr_miss_latency::total     49434000                       # number of ReadCleanReq MSHR miss cycles
system.l2.ReadCleanReq_mshr_miss_rate::.cpu.inst     0.772826                       # mshr miss rate for ReadCleanReq accesses
system.l2.ReadCleanReq_mshr_miss_rate::total     0.772826                       # mshr miss rate for ReadCleanReq accesses
system.l2.ReadCleanReq_avg_mshr_miss_latency::.cpu.inst 69527.426160                       # average ReadCleanReq mshr miss latency
[...]
system.cpu.icache.tags.occ_task_id_percent::1024            1                       # Percentage of cache occupancy per task id
system.cpu.icache.tags.tag_accesses             42570                       # Number of tag accesses
system.cpu.icache.tags.data_accesses            42570                       # Number of data accesses
system.cpu.icache.tags.power_state.pwrStateResidencyTicks::UNDEFINED    451500000                       # Cumulative time (in ticks) in various power states
system.cpu.dtb.walker.power_state.pwrStateResidencyTicks::UNDEFINED    451500000                       # Cumulative time (in ticks) in various power states
system.cpu.dtb.stage2_mmu.stage2_tlb.walker.power_state.pwrStateResidencyTicks::UNDEFINED    451500000                       # Cumulative time (in ticks) in various power states
system.cpu.itb.walker.power_state.pwrStateResidencyTicks::UNDEFINED    451500000                       # Cumulative time (in ticks) in various power states
system.cpu.itb.stage2_mmu.stage2_tlb.walker.power_state.pwrStateResidencyTicks::UNDEFINED    451500000                       # Cumulative time (in ticks) in various power states
system.cpu.dcache.demand_hits::.cpu.data       416692                       # number of demand (read+write) hits
system.cpu.dcache.demand_hits::total           416692                       # number of demand (read+write) hits
system.cpu.dcache.overall_hits::.cpu.data       416700                       # number of overall hits
system.cpu.dcache.overall_hits::total          416700                       # number of overall hits
system.cpu.dcache.demand_misses::.cpu.data        70064                       # number of demand (read+write) misses
system.cpu.dcache.demand_misses::total          70064                       # number of demand (read+write) misses
system.cpu.dcache.overall_misses::.cpu.data        70066                       # number of overall misses
system.cpu.dcache.overall_misses::total         70066                       # number of overall misses
system.cpu.dcache.demand_miss_latency::.cpu.data   1986151647                       # number of demand (read+write) miss cycles
system.cpu.dcache.demand_miss_latency::total   1986151647                       # number of demand (read+write) miss cycles
system.cpu.dcache.overall_miss_latency::.cpu.data   1986151647                       # number of overall miss cycles
system.cpu.dcache.overall_miss_latency::total   1986151647                       # number of overall miss cycles
system.cpu.dcache.demand_accesses::.cpu.data       486756                       # number of demand (read+write) accesses
system.cpu.dcache.demand_accesses::total       486756                       # number of demand (read+write) accesses
system.cpu.dcache.overall_accesses::.cpu.data       486766                       # number of overall (read+write) accesses
system.cpu.dcache.overall_accesses::total       486766                       # number of overall (read+write) accesses
system.cpu.dcache.demand_miss_rate::.cpu.data     0.143941                       # miss rate for demand accesses
system.cpu.dcache.demand_miss_rate::total     0.143941                       # miss rate for demand accesses
system.cpu.dcache.overall_miss_rate::.cpu.data     0.143942                       # miss rate for overall accesses
system.cpu.dcache.overall_miss_rate::total     0.143942                       # miss rate for overall accesses
system.cpu.dcache.demand_avg_miss_latency::.cpu.data 28347.677081                       # average overall miss latency
system.cpu.dcache.demand_avg_miss_latency::total 28347.677081                       # average overall miss latency
system.cpu.dcache.overall_avg_miss_latency::.cpu.data 28346.867910                       # average overall miss latency
system.cpu.dcache.overall_avg_miss_latency::total 28346.867910                       # average overall miss latency
system.cpu.dcache.blocked_cycles::no_mshrs       375515                       # number of cycles access was blocked
system.cpu.dcache.blocked_cycles::no_targets            0                       # number of cycles access was blocked
system.cpu.dcache.blocked::no_mshrs             23877                       # number of cycles access was blocked
system.cpu.dcache.blocked::no_targets               0                       # number of cycles access was blocked
system.cpu.dcache.avg_blocked_cycles::no_mshrs    15.727060                       # average number of cycles each access was blocked
system.cpu.dcache.avg_blocked_cycles::no_targets          nan                       # average number of cycles each access was blocked
system.cpu.dcache.writebacks::.writebacks        27887                       # number of writebacks
system.cpu.dcache.writebacks::total             27887                       # number of writebacks
system.cpu.dcache.demand_mshr_hits::.cpu.data        40068                       # number of demand (read+write) MSHR hits
system.cpu.dcache.demand_mshr_hits::total        40068                       # number of demand (read+write) MSHR hits
system.cpu.dcache.overall_mshr_hits::.cpu.data        40068                       # number of overall MSHR hits
system.cpu.dcache.overall_mshr_hits::total        40068                       # number of overall MSHR hits
system.cpu.dcache.demand_mshr_misses::.cpu.data        29996                       # number of demand (read+write) MSHR misses
system.cpu.dcache.demand_mshr_misses::total        29996                       # number of demand (read+write) MSHR misses
system.cpu.dcache.overall_mshr_misses::.cpu.data        29998                       # number of overall MSHR misses
system.cpu.dcache.overall_mshr_misses::total        29998                       # number of overall MSHR misses
system.cpu.dcache.demand_mshr_miss_latency::.cpu.data    955431188                       # number of demand (read+write) MSHR miss cycles
system.cpu.dcache.demand_mshr_miss_latency::total    955431188                       # number of demand (read+write) MSHR miss cycles
system.cpu.dcache.overall_mshr_miss_latency::.cpu.data    955615688                       # number of overall MSHR miss cycles
system.cpu.dcache.overall_mshr_miss_latency::total    955615688                       # number of overall MSHR miss cycles
system.cpu.dcache.demand_mshr_miss_rate::.cpu.data     0.061624                       # mshr miss rate for demand accesses
system.cpu.dcache.demand_mshr_miss_rate::total     0.061624                       # mshr miss rate for demand accesses
system.cpu.dcache.overall_mshr_miss_rate::.cpu.data     0.061627                       # mshr miss rate for overall accesses
system.cpu.dcache.overall_mshr_miss_rate::total     0.061627                       # mshr miss rate for overall accesses
system.cpu.dcache.demand_avg_mshr_miss_latency::.cpu.data 31851.953194                       # average overall mshr miss latency
system.cpu.dcache.demand_avg_mshr_miss_latency::total 31851.953194                       # average overall mshr miss latency
system.cpu.dcache.overall_avg_mshr_miss_latency::.cpu.data 31855.979999                       # average overall mshr miss latency
system.cpu.dcache.overall_avg_mshr_miss_latency::total 31855.979999                       # average overall mshr miss latency
system.cpu.dcache.replacements                  28973                       # number of replacements
system.cpu.dcache.ReadReq_hits::.cpu.data       358123                       # number of ReadReq hits
system.cpu.dcache.ReadReq_hits::total          358123                       # number of ReadReq hits
system.cpu.dcache.ReadReq_misses::.cpu.data        11836                       # number of ReadReq misses
system.cpu.dcache.ReadReq_misses::total         11836                       # number of ReadReq misses
system.cpu.dcache.ReadReq_miss_latency::.cpu.data    865313500                       # number of ReadReq miss cycles
system.cpu.dcache.ReadReq_miss_latency::total    865313500                       # number of ReadReq miss cycles
system.cpu.dcache.ReadReq_accesses::.cpu.data       369959                       # number of ReadReq accesses(hits+misses)
system.cpu.dcache.ReadReq_accesses::total       369959                       # number of ReadReq accesses(hits+misses)
system.cpu.dcache.ReadReq_miss_rate::.cpu.data     0.031993                       # miss rate for ReadReq accesses
system.cpu.dcache.ReadReq_miss_rate::total     0.031993                       # miss rate for ReadReq accesses
system.cpu.dcache.ReadReq_avg_miss_latency::.cpu.data 73108.609327                       # average ReadReq miss latency
system.cpu.dcache.ReadReq_avg_miss_latency::total 73108.609327                       # average ReadReq miss latency
system.cpu.dcache.ReadReq_mshr_hits::.cpu.data        10342                       # number of ReadReq MSHR hits
system.cpu.dcache.ReadReq_mshr_hits::total        10342                       # number of ReadReq MSHR hits
system.cpu.dcache.ReadReq_mshr_misses::.cpu.data         1494                       # number of ReadReq MSHR misses
system.cpu.dcache.ReadReq_mshr_misses::total         1494                       # number of ReadReq MSHR misses
system.cpu.dcache.ReadReq_mshr_miss_latency::.cpu.data    113171500                       # number of ReadReq MSHR miss cycles
system.cpu.dcache.ReadReq_mshr_miss_latency::total    113171500                       # number of ReadReq MSHR miss cycles
system.cpu.dcache.ReadReq_mshr_miss_rate::.cpu.data     0.004038                       # mshr miss rate for ReadReq accesses
system.cpu.dcache.ReadReq_mshr_miss_rate::total     0.004038                       # mshr miss rate for ReadReq accesses
system.cpu.dcache.ReadReq_avg_mshr_miss_latency::.cpu.data 75750.669344                       # average ReadReq mshr miss latency
system.cpu.dcache.ReadReq_avg_mshr_miss_latency::total 75750.669344                       # average ReadReq mshr miss latency
system.cpu.dcache.WriteReq_hits::.cpu.data        58569                       # number of WriteReq hits
system.cpu.dcache.WriteReq_hits::total          58569                       # number of WriteReq hits
system.cpu.dcache.WriteReq_misses::.cpu.data        33651                       # number of WriteReq misses
system.cpu.dcache.WriteReq_misses::total        33651                       # number of WriteReq misses
system.cpu.dcache.WriteReq_miss_latency::.cpu.data    312334610                       # number of WriteReq miss cycles
system.cpu.dcache.WriteReq_miss_latency::total    312334610                       # number of WriteReq miss cycles
system.cpu.dcache.WriteReq_accesses::.cpu.data        92220                       # number of WriteReq accesses(hits+misses)
system.cpu.dcache.WriteReq_accesses::total        92220                       # number of WriteReq accesses(hits+misses)
system.cpu.dcache.WriteReq_miss_rate::.cpu.data     0.364899                       # miss rate for WriteReq accesses
system.cpu.dcache.WriteReq_miss_rate::total     0.364899                       # miss rate for WriteReq accesses
system.cpu.dcache.WriteReq_avg_miss_latency::.cpu.data  9281.584797                       # average WriteReq miss latency
system.cpu.dcache.WriteReq_avg_miss_latency::total  9281.584797                       # average WriteReq miss latency
system.cpu.dcache.WriteReq_mshr_hits::.cpu.data        29726                       # number of WriteReq MSHR hits
system.cpu.dcache.WriteReq_mshr_hits::total        29726                       # number of WriteReq MSHR hits
system.cpu.dcache.WriteReq_mshr_misses::.cpu.data         3925                       # number of WriteReq MSHR misses
system.cpu.dcache.WriteReq_mshr_misses::total         3925                       # number of WriteReq MSHR misses
system.cpu.dcache.WriteReq_mshr_miss_latency::.cpu.data     58333151                       # number of WriteReq MSHR miss cycles
system.cpu.dcache.WriteReq_mshr_miss_latency::total     58333151                       # number of WriteReq MSHR miss cycles
system.cpu.dcache.WriteReq_mshr_miss_rate::.cpu.data     0.042561                       # mshr miss rate for WriteReq accesses
system.cpu.dcache.WriteReq_mshr_miss_rate::total     0.042561                       # mshr miss rate for WriteReq accesses
system.cpu.dcache.WriteReq_avg_mshr_miss_latency::.cpu.data 14861.949299                       # average WriteReq mshr miss latency
system.cpu.dcache.WriteReq_avg_mshr_miss_latency::total 14861.949299                       # average WriteReq mshr miss latency
system.cpu.dcache.SoftPFReq_hits::.cpu.data            8                       # number of SoftPFReq hits
system.cpu.dcache.SoftPFReq_hits::total             8                       # number of SoftPFReq hits
system.cpu.dcache.SoftPFReq_misses::.cpu.data            2                       # number of SoftPFReq misses
system.cpu.dcache.SoftPFReq_misses::total            2                       # number of SoftPFReq misses
system.cpu.dcache.SoftPFReq_accesses::.cpu.data           10                       # number of SoftPFReq accesses(hits+misses)
system.cpu.dcache.SoftPFReq_accesses::total           10                       # number of SoftPFReq accesses(hits+misses)
system.cpu.dcache.SoftPFReq_miss_rate::.cpu.data     0.200000                       # miss rate for SoftPFReq accesses
system.cpu.dcache.SoftPFReq_miss_rate::total     0.200000                       # miss rate for SoftPFReq accesses
system.cpu.dcache.SoftPFReq_mshr_misses::.cpu.data            2                       # number of SoftPFReq MSHR misses
system.cpu.dcache.SoftPFReq_mshr_misses::total            2                       # number of SoftPFReq MSHR misses
system.cpu.dcache.SoftPFReq_mshr_miss_latency::.cpu.data       184500                       # number of SoftPFReq MSHR miss cycles
system.cpu.dcache.SoftPFReq_mshr_miss_latency::total       184500                       # number of SoftPFReq MSHR miss cycles
system.cpu.dcache.SoftPFReq_mshr_miss_rate::.cpu.data     0.200000                       # mshr miss rate for SoftPFReq accesses
system.cpu.dcache.SoftPFReq_mshr_miss_rate::total     0.200000                       # mshr miss rate for SoftPFReq accesses
system.cpu.dcache.SoftPFReq_avg_mshr_miss_latency::.cpu.data        92250                       # average SoftPFReq mshr miss latency
system.cpu.dcache.SoftPFReq_avg_mshr_miss_latency::total        92250                       # average SoftPFReq mshr miss latency
system.cpu.dcache.WriteLineReq_misses::.cpu.data        24577                       # number of WriteLineReq misses
system.cpu.dcache.WriteLineReq_misses::total        24577                       # number of WriteLineReq misses
system.cpu.dcache.WriteLineReq_miss_latency::.cpu.data    808503537                       # number of WriteLineReq miss cycles
system.cpu.dcache.WriteLineReq_miss_latency::total    808503537                       # number of WriteLineReq miss cycles
system.cpu.dcache.WriteLineReq_accesses::.cpu.data        24577                       # number of WriteLineReq accesses(hits+misses)
system.cpu.dcache.WriteLineReq_accesses::total        24577                       # number of WriteLineReq accesses(hits+misses)
system.cpu.dcache.WriteLineReq_miss_rate::.cpu.data            1                       # miss rate for WriteLineReq accesses
system.cpu.dcache.WriteLineReq_miss_rate::total            1                       # miss rate for WriteLineReq accesses
system.cpu.dcache.WriteLineReq_avg_miss_latency::.cpu.data 32896.754567                       # average WriteLineReq miss latency
system.cpu.dcache.WriteLineReq_avg_miss_latency::total 32896.754567                       # average WriteLineReq miss latency
system.cpu.dcache.WriteLineReq_mshr_misses::.cpu.data        24577                       # number of WriteLineReq MSHR misses
system.cpu.dcache.WriteLineReq_mshr_misses::total        24577                       # number of WriteLineReq MSHR misses
system.cpu.dcache.WriteLineReq_mshr_miss_latency::.cpu.data    783926537                       # number of WriteLineReq MSHR miss cycles
system.cpu.dcache.WriteLineReq_mshr_miss_latency::total    783926537                       # number of WriteLineReq MSHR miss cycles
system.cpu.dcache.WriteLineReq_mshr_miss_rate::.cpu.data            1                       # mshr miss rate for WriteLineReq accesses
system.cpu.dcache.WriteLineReq_mshr_miss_rate::total            1                       # mshr miss rate for WriteLineReq accesses
system.cpu.dcache.WriteLineReq_avg_mshr_miss_latency::.cpu.data 31896.754567                       # average WriteLineReq mshr miss latency
system.cpu.dcache.WriteLineReq_avg_mshr_miss_latency::total 31896.754567                       # average WriteLineReq mshr miss latency
system.cpu.dcache.LoadLockedReq_hits::.cpu.data           68                       # number of LoadLockedReq hits
system.cpu.dcache.LoadLockedReq_hits::total           68                       # number of LoadLockedReq hits
system.cpu.dcache.LoadLockedReq_accesses::.cpu.data           68                       # number of LoadLockedReq accesses(hits+misses)
system.cpu.dcache.LoadLockedReq_accesses::total           68                       # number of LoadLockedReq accesses(hits+misses)
system.cpu.dcache.StoreCondReq_hits::.cpu.data           58                       # number of StoreCondReq hits
system.cpu.dcache.StoreCondReq_hits::total           58                       # number of StoreCondReq hits
system.cpu.dcache.StoreCondReq_accesses::.cpu.data           58                       # number of StoreCondReq accesses(hits+misses)
system.cpu.dcache.StoreCondReq_accesses::total           58                       # number of StoreCondReq accesses(hits+misses)
system.cpu.dcache.power_state.pwrStateResidencyTicks::UNDEFINED    451500000                       # Cumulative time (in ticks) in various power states
system.cpu.dcache.tags.tagsinuse           927.693465                       # Cycle average of tags in use
system.cpu.dcache.tags.total_refs              446823                       # Total number of references to valid blocks.
system.cpu.dcache.tags.sampled_refs             29997                       # Sample count of references to valid blocks.
system.cpu.dcache.tags.avg_refs             14.895590                       # Average number of references to valid blocks.
system.cpu.dcache.tags.warmup_cycle            176500                       # Cycle when the warmup percentage was hit.
system.cpu.dcache.tags.occ_blocks::.cpu.data   927.693465                       # Average occupied blocks per requestor
system.cpu.dcache.tags.occ_percent::.cpu.data     0.905951                       # Average percentage of cache occupancy
system.cpu.dcache.tags.occ_percent::total     0.905951                       # Average percentage of cache occupancy
system.cpu.dcache.tags.occ_task_id_blocks::1024         1024                       # Occupied blocks per task id
system.cpu.dcache.tags.age_task_id_blocks_1024::0          226                       # Occupied blocks per task id
system.cpu.dcache.tags.age_task_id_blocks_1024::1          796                       # Occupied blocks per task id
system.cpu.dcache.tags.age_task_id_blocks_1024::2            2                       # Occupied blocks per task id
system.cpu.dcache.tags.occ_task_id_percent::1024            1                       # Percentage of cache occupancy per task id
system.cpu.dcache.tags.tag_accesses           1003781                       # Number of tag accesses
system.cpu.dcache.tags.data_accesses          1003781                       # Number of data accesses
system.cpu.dcache.tags.power_state.pwrStateResidencyTicks::UNDEFINED    451500000                       # Cumulative time (in ticks) in various power states
system.cpu.power_state.pwrStateResidencyTicks::ON    451500000                       # Cumulative time (in ticks) in various power states

---------- End Simulation Statistics   ----------
