
---------- Begin Simulation Statistics ----------
final_tick                                  775689000                       # Number of ticks from beginning of simulation (restored from checkpoints and never reset)
host_inst_rate                                  84657                       # Simulator instruction rate (inst/s)
host_mem_usage                                 861764                       # Number of bytes of host memory used
host_op_rate                                    87643                       # Simulator op (including micro ops) rate (op/s)
host_seconds                                    11.81                       # Real time elapsed on the host
host_tick_rate                               65666486                       # Simulator tick rate (ticks/s)
sim_freq                                 1000000000000                       # Frequency of simulated ticks
sim_insts                                     1000005                       # Number of instructions simulated
sim_ops                                       1035288                       # Number of ops (including micro ops) simulated
sim_seconds                                  0.000776                       # Number of seconds simulated
sim_ticks                                   775689000                       # Number of ticks simulated
system.cpu.branchPred.BTBCorrect                    0                       # Number of correct BTB predictions (this stat may not work properly.
system.cpu.branchPred.BTBHitPct             87.470361                       # BTB Hit Percentage
system.cpu.branchPred.BTBHits                   74886                       # Number of BTB hits
system.cpu.branchPred.BTBLookups                85613                       # Number of BTB lookups
system.cpu.branchPred.RASInCorrect                  2                       # Number of incorrect RAS predictions.
system.cpu.branchPred.condIncorrect              8874                       # Number of conditional branches incorrect
system.cpu.branchPred.condPredicted             46098                       # Number of conditional branches predicted
system.cpu.branchPred.indirectHits                 76                       # Number of indirect target hits.
system.cpu.branchPred.indirectLookups             343                       # Number of indirect predictor lookups.
system.cpu.branchPred.indirectMisses              267                       # Number of indirect misses.
system.cpu.branchPred.lookups                  157692                       # Number of BP lookups
system.cpu.branchPred.usedRAS                   57220                       # Number of times the RAS was used to get a target.
system.cpu.branchPredindirectMispredicted          100                       # Number of mispredicted indirect branches.
system.cpu.cc_regfile_reads                     69309                       # number of cc regfile reads
system.cpu.cc_regfile_writes                    69306                       # number of cc regfile writes
system.cpu.commit.amos                              0                       # Number of atomic instructions committed
system.cpu.commit.branchMispredicts              8566                       # The number of times a branch was mispredicted
system.cpu.commit.branches                      89552                       # Number of branches committed
system.cpu.commit.bw_lim_events                 64539                       # number cycles where commit BW limit reached
system.cpu.commit.commitNonSpecStalls             169                       # The number of times commit has been forced to stall to communicate backwards
system.cpu.commit.commitSquashedInsts          589847                       # The number of squashed insts skipped by commit
system.cpu.commit.committedInsts              1000413                       # Number of instructions committed
system.cpu.commit.committedOps                1035696                       # Number of ops (including micro ops) committed
system.cpu.commit.committed_per_cycle::samples      1424293                       # Number of insts commited each cycle
system.cpu.commit.committed_per_cycle::mean     0.727165                       # Number of insts commited each cycle
system.cpu.commit.committed_per_cycle::stdev     1.825895                       # Number of insts commited each cycle
system.cpu.commit.committed_per_cycle::underflows            0      0.00%      0.00% # Number of insts commited each cycle
system.cpu.commit.committed_per_cycle::0      1053624     73.98%     73.98% # Number of insts commited each cycle
system.cpu.commit.committed_per_cycle::1       203085     14.26%     88.23% # Number of insts commited each cycle
system.cpu.commit.committed_per_cycle::2        54743      3.84%     92.08% # Number of insts commited each cycle
system.cpu.commit.committed_per_cycle::3        12415      0.87%     92.95% # Number of insts commited each cycle
system.cpu.commit.committed_per_cycle::4        21192      1.49%     94.44% # Number of insts commited each cycle
system.cpu.commit.committed_per_cycle::5         6493      0.46%     94.89% # Number of insts commited each cycle
system.cpu.commit.committed_per_cycle::6         5079      0.36%     95.25% # Number of insts commited each cycle
system.cpu.commit.committed_per_cycle::7         3123      0.22%     95.47% # Number of insts commited each cycle
system.cpu.commit.committed_per_cycle::8        64539      4.53%    100.00% # Number of insts commited each cycle
system.cpu.commit.committed_per_cycle::overflows            0      0.00%    100.00% # Number of insts commited each cycle
system.cpu.commit.committed_per_cycle::min_value            0                       # Number of insts commited each cycle
system.cpu.commit.committed_per_cycle::max_value            8                       # Number of insts commited each cycle
system.cpu.commit.committed_per_cycle::total      1424293                       # Number of insts commited each cycle
system.cpu.commit.fp_insts                          0                       # Number of committed floating point instructions.
system.cpu.commit.function_calls                30618                       # Number of function calls committed.
system.cpu.commit.int_insts                   1016144                       # Number of committed integer instructions.
system.cpu.commit.loads                        160773                       # Number of loads committed
system.cpu.commit.membars                         142                       # Number of memory barriers committed
system.cpu.commit.op_class_0::No_OpClass           35      0.00%      0.00% # Class of committed instruction
system.cpu.commit.op_class_0::IntAlu           521896     50.39%     50.39% # Class of committed instruction
system.cpu.commit.op_class_0::IntMult          158304     15.28%     65.68% # Class of committed instruction
system.cpu.commit.op_class_0::IntDiv            60283      5.82%     71.50% # Class of committed instruction
system.cpu.commit.op_class_0::FloatAdd              0      0.00%     71.50% # Class of committed instruction
system.cpu.commit.op_class_0::FloatCmp              0      0.00%     71.50% # Class of committed instruction
system.cpu.commit.op_class_0::FloatCvt              0      0.00%     71.50% # Class of committed instruction
system.cpu.commit.op_class_0::FloatMult             0      0.00%     71.50% # Class of committed instruction
system.cpu.commit.op_class_0::FloatMultAcc            0      0.00%     71.50% # Class of committed instruction
system.cpu.commit.op_class_0::FloatDiv              0      0.00%     71.50% # Class of committed instruction
system.cpu.commit.op_class_0::FloatMisc             0      0.00%     71.50% # Class of committed instruction
system.cpu.commit.op_class_0::FloatSqrt             0      0.00%     71.50% # Class of committed instruction
system.cpu.commit.op_class_0::SimdAdd              83      0.01%     71.51% # Class of committed instruction
system.cpu.commit.op_class_0::SimdAddAcc            0      0.00%     71.51% # Class of committed instruction
system.cpu.commit.op_class_0::SimdAlu             138      0.01%     71.52% # Class of committed instruction
system.cpu.commit.op_class_0::SimdCmp             140      0.01%     71.53% # Class of committed instruction
system.cpu.commit.op_class_0::SimdCvt               0      0.00%     71.53% # Class of committed instruction
system.cpu.commit.op_class_0::SimdMisc            103      0.01%     71.54% # Class of committed instruction
system.cpu.commit.op_class_0::SimdMult              0      0.00%     71.54% # Class of committed instruction
system.cpu.commit.op_class_0::SimdMultAcc            0      0.00%     71.54% # Class of committed instruction
system.cpu.commit.op_class_0::SimdShift             0      0.00%     71.54% # Class of committed instruction
system.cpu.commit.op_class_0::SimdShiftAcc            0      0.00%     71.54% # Class of committed instruction
system.cpu.commit.op_class_0::SimdDiv               0      0.00%     71.54% # Class of committed instruction
system.cpu.commit.op_class_0::SimdSqrt              0      0.00%     71.54% # Class of committed instruction
system.cpu.commit.op_class_0::SimdFloatAdd            0      0.00%     71.54% # Class of committed instruction
system.cpu.commit.op_class_0::SimdFloatAlu            0      0.00%     71.54% # Class of committed instruction
system.cpu.commit.op_class_0::SimdFloatCmp            0      0.00%     71.54% # Class of committed instruction
system.cpu.commit.op_class_0::SimdFloatCvt            0      0.00%     71.54% # Class of committed instruction
system.cpu.commit.op_class_0::SimdFloatDiv            0      0.00%     71.54% # Class of committed instruction
system.cpu.commit.op_class_0::SimdFloatMisc            0      0.00%     71.54% # Class of committed instruction
system.cpu.commit.op_class_0::SimdFloatMult            0      0.00%     71.54% # Class of committed instruction
system.cpu.commit.op_class_0::SimdFloatMultAcc            0      0.00%     71.54% # Class of committed instruction
system.cpu.commit.op_class_0::SimdFloatSqrt            0      0.00%     71.54% # Class of committed instruction
system.cpu.commit.op_class_0::SimdReduceAdd            0      0.00%     71.54% # Class of committed instruction
system.cpu.commit.op_class_0::SimdReduceAlu            0      0.00%     71.54% # Class of committed instruction
system.cpu.commit.op_class_0::SimdReduceCmp            0      0.00%     71.54% # Class of committed instruction
system.cpu.commit.op_class_0::SimdFloatReduceAdd            0      0.00%     71.54% # Class of committed instruction
system.cpu.commit.op_class_0::SimdFloatReduceCmp            0      0.00%     71.54% # Class of committed instruction
system.cpu.commit.op_class_0::SimdAes               0      0.00%     71.54% # Class of committed instruction
system.cpu.commit.op_class_0::SimdAesMix            0      0.00%     71.54% # Class of committed instruction
system.cpu.commit.op_class_0::SimdSha1Hash            0      0.00%     71.54% # Class of committed instruction
system.cpu.commit.op_class_0::SimdSha1Hash2            0      0.00%     71.54% # Class of committed instruction
system.cpu.commit.op_class_0::SimdSha256Hash            0      0.00%     71.54% # Class of committed instruction
system.cpu.commit.op_class_0::SimdSha256Hash2            0      0.00%     71.54% # Class of committed instruction
system.cpu.commit.op_class_0::SimdShaSigma2            0      0.00%     71.54% # Class of committed instruction
system.cpu.commit.op_class_0::SimdShaSigma3            0      0.00%     71.54% # Class of committed instruction
system.cpu.commit.op_class_0::SimdPredAlu            0      0.00%     71.54% # Class of committed instruction
system.cpu.commit.op_class_0::MemRead          160773     15.52%     87.07% # Class of committed instruction
system.cpu.commit.op_class_0::MemWrite         133941     12.93%    100.00% # Class of committed instruction
system.cpu.commit.op_class_0::FloatMemRead            0      0.00%    100.00% # Class of committed instruction
system.cpu.commit.op_class_0::FloatMemWrite            0      0.00%    100.00% # Class of committed instruction
system.cpu.commit.op_class_0::IprAccess             0      0.00%    100.00% # Class of committed instruction
system.cpu.commit.op_class_0::InstPrefetch            0      0.00%    100.00% # Class of committed instruction
system.cpu.commit.op_class_0::total           1035696                       # Class of committed instruction
system.cpu.commit.refs                         294714                       # Number of memory references committed
system.cpu.commit.swp_count                         0                       # Number of s/w prefetches committed
system.cpu.commit.vec_insts                      1073                       # Number of committed Vector instructions.
system.cpu.committedInsts                     1000005                       # Number of Instructions Simulated
system.cpu.committedOps                       1035288                       # Number of Ops (including micro ops) Simulated
system.cpu.cpi                               1.551371                       # CPI: Cycles Per Instruction
system.cpu.cpi_total                         1.551371                       # CPI: Total CPI of All Threads
system.cpu.decode.BlockedCycles               1012146                       # Number of cycles decode is blocked
system.cpu.decode.BranchMispred                   310                       # Number of times decode detected a branch misprediction
system.cpu.decode.BranchResolved                73657                       # Number of times decode resolved a branch
system.cpu.decode.DecodedInsts                1924791                       # Number of instructions handled by decode
system.cpu.decode.IdleCycles                   174223                       # Number of cycles decode is idle
system.cpu.decode.RunCycles                    261098                       # Number of cycles decode is running
system.cpu.decode.SquashCycles                  12403                       # Number of cycles decode is squashing
system.cpu.decode.SquashedInsts                  1046                       # Number of squashed instructions handled by decode
system.cpu.decode.UnblockCycles                 42945                       # Number of cycles decode is unblocking
system.cpu.dtb.accesses                             0                       # DTB accesses
system.cpu.dtb.align_faults                         0                       # Number of TLB faults due to alignment restrictions
system.cpu.dtb.domain_faults                        0                       # Number of TLB faults due to domain restrictions
system.cpu.dtb.flush_entries                        0                       # Number of entries that have been flushed from TLB
system.cpu.dtb.flush_tlb                            0                       # Number of times complete TLB was flushed
system.cpu.dtb.flush_tlb_asid                       0                       # Number of times TLB was flushed by ASID
system.cpu.dtb.flush_tlb_mva                        0                       # Number of times TLB was flushed by MVA
system.cpu.dtb.flush_tlb_mva_asid                   0                       # Number of times TLB was flushed by MVA & ASID
system.cpu.dtb.hits                                 0                       # DTB hits
system.cpu.dtb.inst_accesses                        0                       # ITB inst accesses
system.cpu.dtb.inst_hits                            0                       # ITB inst hits
system.cpu.dtb.inst_misses                          0                       # ITB inst misses
system.cpu.dtb.misses                               0                       # DTB misses
system.cpu.dtb.perms_faults                         0                       # Number of TLB faults due to permissions restrictions
system.cpu.dtb.prefetch_faults                      0                       # Number of TLB faults due to prefetch
system.cpu.dtb.read_accesses                        0                       # DTB read accesses
system.cpu.dtb.read_hits                            0                       # DTB read hits
system.cpu.dtb.read_misses                          0                       # DTB read misses
system.cpu.dtb.stage2_mmu.stage2_tlb.accesses            0                       # DTB accesses
system.cpu.dtb.stage2_mmu.stage2_tlb.align_faults            0                       # Number of TLB faults due to alignment restrictions
system.cpu.dtb.stage2_mmu.stage2_tlb.domain_faults            0                       # Number of TLB faults due to domain restrictions
system.cpu.dtb.stage2_mmu.stage2_tlb.flush_entries            0                       # Number of entries that have been flushed from TLB
system.cpu.dtb.stage2_mmu.stage2_tlb.flush_tlb            0                       # Number of times complete TLB was flushed
system.cpu.dtb.stage2_mmu.stage2_tlb.flush_tlb_asid            0                       # Number of times TLB was flushed by ASID
system.cpu.dtb.stage2_mmu.stage2_tlb.flush_tlb_mva            0                       # Number of times TLB was flushed by MVA
system.cpu.dtb.stage2_mmu.stage2_tlb.flush_tlb_mva_asid            0                       # Number of times TLB was flushed by MVA & ASID
system.cpu.dtb.stage2_mmu.stage2_tlb.hits            0                       # DTB hits
system.cpu.dtb.stage2_mmu.stage2_tlb.inst_accesses            0                       # ITB inst accesses
system.cpu.dtb.stage2_mmu.stage2_tlb.inst_hits            0                       # ITB inst hits
system.cpu.dtb.stage2_mmu.stage2_tlb.inst_misses            0                       # ITB inst misses
system.cpu.dtb.stage2_mmu.stage2_tlb.misses            0                       # DTB misses
system.cpu.dtb.stage2_mmu.stage2_tlb.perms_faults            0                       # Number of TLB faults due to permissions restrictions
system.cpu.dtb.stage2_mmu.stage2_tlb.prefetch_faults            0                       # Number of TLB faults due to prefetch
system.cpu.dtb.stage2_mmu.stage2_tlb.read_accesses            0                       # DTB read accesses
system.cpu.dtb.stage2_mmu.stage2_tlb.read_hits            0                       # DTB read hits
system.cpu.dtb.stage2_mmu.stage2_tlb.read_misses            0                       # DTB read misses
system.cpu.dtb.stage2_mmu.stage2_tlb.walker.walkRequestOrigin_Requested::Data            0                       # Table walker requests started/completed, data/inst
system.cpu.dtb.stage2_mmu.stage2_tlb.walker.walkRequestOrigin_Requested::Inst            0                       # Table walker requests started/completed, data/inst
system.cpu.dtb.stage2_mmu.stage2_tlb.walker.walkRequestOrigin_Requested::total            0                       # Table walker requests started/completed, data/inst
system.cpu.dtb.stage2_mmu.stage2_tlb.walker.walkRequestOrigin_Completed::Data            0                       # Table walker requests started/completed, data/inst
system.cpu.dtb.stage2_mmu.stage2_tlb.walker.walkRequestOrigin_Completed::Inst            0                       # Table walker requests started/completed, data/inst
system.cpu.dtb.stage2_mmu.stage2_tlb.walker.walkRequestOrigin_Completed::total            0                       # Table walker requests started/completed, data/inst
system.cpu.dtb.stage2_mmu.stage2_tlb.walker.walkRequestOrigin::total            0                       # Table walker requests started/completed, data/inst
system.cpu.dtb.stage2_mmu.stage2_tlb.walker.walks            0                       # Table walker walks requested
system.cpu.dtb.stage2_mmu.stage2_tlb.write_accesses            0                       # DTB write accesses
system.cpu.dtb.stage2_mmu.stage2_tlb.write_hits            0                       # DTB write hits
system.cpu.dtb.stage2_mmu.stage2_tlb.write_misses            0                       # DTB write misses
system.cpu.dtb.walker.walkRequestOrigin_Requested::Data            0                       # Table walker requests started/completed, data/inst
system.cpu.dtb.walker.walkRequestOrigin_Requested::Inst            0                       # Table walker requests started/completed, data/inst
system.cpu.dtb.walker.walkRequestOrigin_Requested::total            0                       # Table walker requests started/completed, data/inst
system.cpu.dtb.walker.walkRequestOrigin_Completed::Data            0                       # Table walker requests started/completed, data/inst
system.cpu.dtb.walker.walkRequestOrigin_Completed::Inst            0                       # Table walker requests started/completed, data/inst
system.cpu.dtb.walker.walkRequestOrigin_Completed::total            0                       # Table walker requests started/completed, data/inst
system.cpu.dtb.walker.walkRequestOrigin::total            0                       # Table walker requests started/completed, data/inst
system.cpu.dtb.walker.walks                         0                       # Table walker walks requested
system.cpu.dtb.write_accesses                       0                       # DTB write accesses
system.cpu.dtb.write_hits                           0                       # DTB write hits
system.cpu.dtb.write_misses                         0                       # DTB write misses
system.cpu.fetch.Branches                      157692                       # Number of branches that fetch encountered
system.cpu.fetch.CacheLines                    248767                       # Number of cache lines fetched
system.cpu.fetch.Cycles                       1211357                       # Number of cycles fetch has run and was not squashing or blocked
system.cpu.fetch.IcacheSquashes                  4728                       # Number of outstanding Icache misses that were squashed
system.cpu.fetch.IcacheWaitRetryStallCycles           48                       # Number of stall cycles due to full MSHR
system.cpu.fetch.Insts                        1973067                       # Number of instructions fetch has processed
system.cpu.fetch.MiscStallCycles                    5                       # Number of cycles fetch has spent waiting on interrupts, or bad addresses, or out of MSHRs
system.cpu.fetch.SquashCycles                   25422                       # Number of cycles fetch has spent squashing
system.cpu.fetch.branchRate                  0.101646                       # Number of branch fetches per cycle
system.cpu.fetch.icacheStallCycles             278694                       # Number of cycles fetch is stalled on an Icache miss
system.cpu.fetch.predictedBranches             132182                       # Number of branches that fetch has predicted taken
system.cpu.fetch.rate                        1.271815                       # Number of inst fetches per cycle
system.cpu.fetch.rateDist::samples            1502815                       # Number of instructions fetched each cycle (Total)
system.cpu.fetch.rateDist::mean              1.354260                       # Number of instructions fetched each cycle (Total)
system.cpu.fetch.rateDist::stdev             2.680000                       # Number of instructions fetched each cycle (Total)
system.cpu.fetch.rateDist::underflows               0      0.00%      0.00% # Number of instructions fetched each cycle (Total)
system.cpu.fetch.rateDist::0                  1120997     74.59%     74.59% # Number of instructions fetched each cycle (Total)
system.cpu.fetch.rateDist::1                    39597      2.63%     77.23% # Number of instructions fetched each cycle (Total)
system.cpu.fetch.rateDist::2                    53183      3.54%     80.77% # Number of instructions fetched each cycle (Total)
system.cpu.fetch.rateDist::3                    29331      1.95%     82.72% # Number of instructions fetched each cycle (Total)
system.cpu.fetch.rateDist::4                    21007      1.40%     84.12% # Number of instructions fetched each cycle (Total)
system.cpu.fetch.rateDist::5                    39858      2.65%     86.77% # Number of instructions fetched each cycle (Total)
system.cpu.fetch.rateDist::6                    33681      2.24%     89.01% # Number of instructions fetched each cycle (Total)
system.cpu.fetch.rateDist::7                     5446      0.36%     89.37% # Number of instructions fetched each cycle (Total)
system.cpu.fetch.rateDist::8                   159715     10.63%    100.00% # Number of instructions fetched each cycle (Total)
system.cpu.fetch.rateDist::overflows                0      0.00%    100.00% # Number of instructions fetched each cycle (Total)
system.cpu.fetch.rateDist::min_value                0                       # Number of instructions fetched each cycle (Total)
system.cpu.fetch.rateDist::max_value                8                       # Number of instructions fetched each cycle (Total)
system.cpu.fetch.rateDist::total              1502815                       # Number of instructions fetched each cycle (Total)
system.cpu.idleCycles                           48564                       # Total number of cycles that the CPU has spent unscheduled due to idling
system.cpu.iew.branchMispredicts                12463                       # Number of branch mispredicts detected at execute
system.cpu.iew.exec_branches                   140547                       # Number of branches executed
system.cpu.iew.exec_nop                           497                       # number of nop insts executed
system.cpu.iew.exec_rate                     0.998510                       # Inst execution rate
system.cpu.iew.exec_refs                       485282                       # number of memory reference insts executed
system.cpu.iew.exec_stores                     198772                       # Number of stores executed
system.cpu.iew.exec_swp                             0                       # number of swp insts executed
system.cpu.iew.iewBlockCycles                  245377                       # Number of cycles IEW is blocking
system.cpu.iew.iewDispLoadInsts                296497                       # Number of dispatched load instructions
system.cpu.iew.iewDispNonSpecInsts                231                       # Number of dispatched non-speculative instructions
system.cpu.iew.iewDispSquashedInsts             27191                       # Number of squashed instructions skipped by dispatch
system.cpu.iew.iewDispStoreInsts               231145                       # Number of dispatched store instructions
system.cpu.iew.iewDispatchedInsts             1775140                       # Number of instructions dispatched to IQ
system.cpu.iew.iewExecLoadInsts                286510                       # Number of load instructions executed
system.cpu.iew.iewExecSquashedInsts             12805                       # Number of squashed instructions skipped in execute
system.cpu.iew.iewExecutedInsts               1549068                       # Number of executed instructions
system.cpu.iew.iewIQFullEvents                  14668                       # Number of times the IQ has become full, causing a stall
system.cpu.iew.iewIdleCycles                        0                       # Number of cycles IEW is idle
system.cpu.iew.iewLSQFullEvents                 43044                       # Number of times the LSQ has become full, causing a stall
system.cpu.iew.iewSquashCycles                  12403                       # Number of cycles IEW is squashing
system.cpu.iew.iewUnblockCycles                 65170                       # Number of cycles IEW is unblocking
system.cpu.iew.lsq.thread0.blockedLoads             0                       # Number of blocked loads due to partial load-store forwarding
system.cpu.iew.lsq.thread0.cacheBlocked          3715                       # Number of times an access to memory failed due to the cache being blocked
system.cpu.iew.lsq.thread0.forwLoads              140                       # Number of loads that had data forwarded from stores
system.cpu.iew.lsq.thread0.ignoredResponses            3                       # Number of memory responses ignored because the instruction is squashed
system.cpu.iew.lsq.thread0.invAddrLoads             0                       # Number of loads ignored due to an invalid address
system.cpu.iew.lsq.thread0.invAddrSwpfs             0                       # Number of software prefetches ignored due to an invalid address
system.cpu.iew.lsq.thread0.memOrderViolation           31                       # Number of memory ordering violations
system.cpu.iew.lsq.thread0.rescheduledLoads          184                       # Number of loads that were rescheduled
system.cpu.iew.lsq.thread0.squashedLoads       135714                       # Number of loads squashed
system.cpu.iew.lsq.thread0.squashedStores        97188                       # Number of stores squashed
system.cpu.iew.memOrderViolationEvents             31                       # Number of memory order violations
system.cpu.iew.predictedNotTakenIncorrect         6244                       # Number of branches that were predicted not taken incorrectly
system.cpu.iew.predictedTakenIncorrect           6219                       # Number of branches that were predicted taken incorrectly
system.cpu.iew.wb_consumers                   1623617                       # num instructions consuming a value
system.cpu.iew.wb_count                       1471516                       # cumulative count of insts written-back
system.cpu.iew.wb_fanout                     0.650126                       # average fanout of values written-back
system.cpu.iew.wb_producers                   1055556                       # num instructions producing a value
system.cpu.iew.wb_rate                       0.948521                       # insts written-back per cycle
system.cpu.iew.wb_sent                        1538018                       # cumulative count of insts sent to commit
system.cpu.int_regfile_reads                  2278636                       # number of integer regfile reads
system.cpu.int_regfile_writes                 1271991                       # number of integer regfile writes
system.cpu.ipc                               0.644591                       # IPC: Instructions Per Cycle
system.cpu.ipc_total                         0.644591                       # IPC: Total IPC of All Threads
system.cpu.iq.FU_type_0::No_OpClass                36      0.00%      0.00% # Type of FU issued
system.cpu.iq.FU_type_0::IntAlu                802727     51.40%     51.40% # Type of FU issued
system.cpu.iq.FU_type_0::IntMult               199699     12.79%     64.18% # Type of FU issued
system.cpu.iq.FU_type_0::IntDiv                 68012      4.35%     68.54% # Type of FU issued
system.cpu.iq.FU_type_0::FloatAdd                   0      0.00%     68.54% # Type of FU issued
system.cpu.iq.FU_type_0::FloatCmp                   0      0.00%     68.54% # Type of FU issued
system.cpu.iq.FU_type_0::FloatCvt                   0      0.00%     68.54% # Type of FU issued
system.cpu.iq.FU_type_0::FloatMult                  0      0.00%     68.54% # Type of FU issued
system.cpu.iq.FU_type_0::FloatMultAcc               0      0.00%     68.54% # Type of FU issued
system.cpu.iq.FU_type_0::FloatDiv                   0      0.00%     68.54% # Type of FU issued
system.cpu.iq.FU_type_0::FloatMisc                  0      0.00%     68.54% # Type of FU issued
system.cpu.iq.FU_type_0::FloatSqrt                  0      0.00%     68.54% # Type of FU issued
system.cpu.iq.FU_type_0::SimdAdd                   89      0.01%     68.54% # Type of FU issued
system.cpu.iq.FU_type_0::SimdAddAcc                 0      0.00%     68.54% # Type of FU issued
system.cpu.iq.FU_type_0::SimdAlu                  147      0.01%     68.55% # Type of FU issued
system.cpu.iq.FU_type_0::SimdCmp                  144      0.01%     68.56% # Type of FU issued
system.cpu.iq.FU_type_0::SimdCvt                    0      0.00%     68.56% # Type of FU issued
system.cpu.iq.FU_type_0::SimdMisc                 106      0.01%     68.57% # Type of FU issued
system.cpu.iq.FU_type_0::SimdMult                   0      0.00%     68.57% # Type of FU issued
system.cpu.iq.FU_type_0::SimdMultAcc                0      0.00%     68.57% # Type of FU issued
system.cpu.iq.FU_type_0::SimdShift                  0      0.00%     68.57% # Type of FU issued
system.cpu.iq.FU_type_0::SimdShiftAcc               0      0.00%     68.57% # Type of FU issued
system.cpu.iq.FU_type_0::SimdDiv                    0      0.00%     68.57% # Type of FU issued
system.cpu.iq.FU_type_0::SimdSqrt                   0      0.00%     68.57% # Type of FU issued
system.cpu.iq.FU_type_0::SimdFloatAdd               0      0.00%     68.57% # Type of FU issued
system.cpu.iq.FU_type_0::SimdFloatAlu               0      0.00%     68.57% # Type of FU issued
system.cpu.iq.FU_type_0::SimdFloatCmp               0      0.00%     68.57% # Type of FU issued
system.cpu.iq.FU_type_0::SimdFloatCvt               0      0.00%     68.57% # Type of FU issued
system.cpu.iq.FU_type_0::SimdFloatDiv               0      0.00%     68.57% # Type of FU issued
system.cpu.iq.FU_type_0::SimdFloatMisc              0      0.00%     68.57% # Type of FU issued
system.cpu.iq.FU_type_0::SimdFloatMult              0      0.00%     68.57% # Type of FU issued
system.cpu.iq.FU_type_0::SimdFloatMultAcc            0      0.00%     68.57% # Type of FU issued
system.cpu.iq.FU_type_0::SimdFloatSqrt              0      0.00%     68.57% # Type of FU issued
system.cpu.iq.FU_type_0::SimdReduceAdd              0      0.00%     68.57% # Type of FU issued
system.cpu.iq.FU_type_0::SimdReduceAlu              0      0.00%     68.57% # Type of FU issued
system.cpu.iq.FU_type_0::SimdReduceCmp              0      0.00%     68.57% # Type of FU issued
system.cpu.iq.FU_type_0::SimdFloatReduceAdd            0      0.00%     68.57% # Type of FU issued
system.cpu.iq.FU_type_0::SimdFloatReduceCmp            0      0.00%     68.57% # Type of FU issued
system.cpu.iq.FU_type_0::SimdAes                    0      0.00%     68.57% # Type of FU issued
system.cpu.iq.FU_type_0::SimdAesMix                 0      0.00%     68.57% # Type of FU issued
system.cpu.iq.FU_type_0::SimdSha1Hash               0      0.00%     68.57% # Type of FU issued
system.cpu.iq.FU_type_0::SimdSha1Hash2              0      0.00%     68.57% # Type of FU issued
system.cpu.iq.FU_type_0::SimdSha256Hash             0      0.00%     68.57% # Type of FU issued
system.cpu.iq.FU_type_0::SimdSha256Hash2            0      0.00%     68.57% # Type of FU issued
system.cpu.iq.FU_type_0::SimdShaSigma2              0      0.00%     68.57% # Type of FU issued
system.cpu.iq.FU_type_0::SimdShaSigma3              0      0.00%     68.57% # Type of FU issued
system.cpu.iq.FU_type_0::SimdPredAlu                0      0.00%     68.57% # Type of FU issued
system.cpu.iq.FU_type_0::MemRead               291977     18.69%     87.26% # Type of FU issued
system.cpu.iq.FU_type_0::MemWrite              198939     12.74%    100.00% # Type of FU issued
system.cpu.iq.FU_type_0::FloatMemRead               0      0.00%    100.00% # Type of FU issued
system.cpu.iq.FU_type_0::FloatMemWrite              0      0.00%    100.00% # Type of FU issued
system.cpu.iq.FU_type_0::IprAccess                  0      0.00%    100.00% # Type of FU issued
system.cpu.iq.FU_type_0::InstPrefetch               0      0.00%    100.00% # Type of FU issued
system.cpu.iq.FU_type_0::total                1561876                       # Type of FU issued
system.cpu.iq.fp_alu_accesses                       0                       # Number of floating point alu accesses
system.cpu.iq.fp_inst_queue_reads                   0                       # Number of floating instruction queue reads
system.cpu.iq.fp_inst_queue_wakeup_accesses            0                       # Number of floating instruction queue wakeup accesses
system.cpu.iq.fp_inst_queue_writes                  0                       # Number of floating instruction queue writes
system.cpu.iq.fu_busy_cnt                     1129786                       # FU busy when requested
system.cpu.iq.fu_busy_rate                   0.723352                       # FU busy rate (busy events/executed inst)
system.cpu.iq.fu_full::No_OpClass                   0      0.00%      0.00% # attempts to use FU when none available
system.cpu.iq.fu_full::IntAlu                    7589      0.67%      0.67% # attempts to use FU when none available
system.cpu.iq.fu_full::IntMult                 561355     49.69%     50.36% # attempts to use FU when none available
system.cpu.iq.fu_full::IntDiv                  539483     47.75%     98.11% # attempts to use FU when none available
system.cpu.iq.fu_full::FloatAdd                     0      0.00%     98.11% # attempts to use FU when none available
system.cpu.iq.fu_full::FloatCmp                     0      0.00%     98.11% # attempts to use FU when none available
system.cpu.iq.fu_full::FloatCvt                     0      0.00%     98.11% # attempts to use FU when none available
system.cpu.iq.fu_full::FloatMult                    0      0.00%     98.11% # attempts to use FU when none available
system.cpu.iq.fu_full::FloatMultAcc                 0      0.00%     98.11% # attempts to use FU when none available
system.cpu.iq.fu_full::FloatDiv                     0      0.00%     98.11% # attempts to use FU when none available
system.cpu.iq.fu_full::FloatMisc                    0      0.00%     98.11% # attempts to use FU when none available
system.cpu.iq.fu_full::FloatSqrt                    0      0.00%     98.11% # attempts to use FU when none available
system.cpu.iq.fu_full::SimdAdd                      0      0.00%     98.11% # attempts to use FU when none available
system.cpu.iq.fu_full::SimdAddAcc                   0      0.00%     98.11% # attempts to use FU when none available
system.cpu.iq.fu_full::SimdAlu                      1      0.00%     98.11% # attempts to use FU when none available
system.cpu.iq.fu_full::SimdCmp                      1      0.00%     98.11% # attempts to use FU when none available
system.cpu.iq.fu_full::SimdCvt                      0      0.00%     98.11% # attempts to use FU when none available
system.cpu.iq.fu_full::SimdMisc                     0      0.00%     98.11% # attempts to use FU when none available
system.cpu.iq.fu_full::SimdMult                     0      0.00%     98.11% # attempts to use FU when none available
system.cpu.iq.fu_full::SimdMultAcc                  0      0.00%     98.11% # attempts to use FU when none available
system.cpu.iq.fu_full::SimdShift                    0      0.00%     98.11% # attempts to use FU when none available
system.cpu.iq.fu_full::SimdShiftAcc                 0      0.00%     98.11% # attempts to use FU when none available
system.cpu.iq.fu_full::SimdDiv                      0      0.00%     98.11% # attempts to use FU when none available
system.cpu.iq.fu_full::SimdSqrt                     0      0.00%     98.11% # attempts to use FU when none available
system.cpu.iq.fu_full::SimdFloatAdd                 0      0.00%     98.11% # attempts to use FU when none available
system.cpu.iq.fu_full::SimdFloatAlu                 0      0.00%     98.11% # attempts to use FU when none available
system.cpu.iq.fu_full::SimdFloatCmp                 0      0.00%     98.11% # attempts to use FU when none available
system.cpu.iq.fu_full::SimdFloatCvt                 0      0.00%     98.11% # attempts to use FU when none available
system.cpu.iq.fu_full::SimdFloatDiv                 0      0.00%     98.11% # attempts to use FU when none available
system.cpu.iq.fu_full::SimdFloatMisc                0      0.00%     98.11% # attempts to use FU when none available
system.cpu.iq.fu_full::SimdFloatMult                0      0.00%     98.11% # attempts to use FU when none available
system.cpu.iq.fu_full::SimdFloatMultAcc             0      0.00%     98.11% # attempts to use FU when none available
system.cpu.iq.fu_full::SimdFloatSqrt                0      0.00%     98.11% # attempts to use FU when none available
system.cpu.iq.fu_full::SimdReduceAdd                0      0.00%     98.11% # attempts to use FU when none available
system.cpu.iq.fu_full::SimdReduceAlu                0      0.00%     98.11% # attempts to use FU when none available
system.cpu.iq.fu_full::SimdReduceCmp                0      0.00%     98.11% # attempts to use FU when none available
system.cpu.iq.fu_full::SimdFloatReduceAdd            0      0.00%     98.11% # attempts to use FU when none available
system.cpu.iq.fu_full::SimdFloatReduceCmp            0      0.00%     98.11% # attempts to use FU when none available
system.cpu.iq.fu_full::SimdAes                      0      0.00%     98.11% # attempts to use FU when none available
system.cpu.iq.fu_full::SimdAesMix                   0      0.00%     98.11% # attempts to use FU when none available
system.cpu.iq.fu_full::SimdSha1Hash                 0      0.00%     98.11% # attempts to use FU when none available
system.cpu.iq.fu_full::SimdSha1Hash2                0      0.00%     98.11% # attempts to use FU when none available
system.cpu.iq.fu_full::SimdSha256Hash               0      0.00%     98.11% # attempts to use FU when none available
system.cpu.iq.fu_full::SimdSha256Hash2              0      0.00%     98.11% # attempts to use FU when none available
system.cpu.iq.fu_full::SimdShaSigma2                0      0.00%     98.11% # attempts to use FU when none available
system.cpu.iq.fu_full::SimdShaSigma3                0      0.00%     98.11% # attempts to use FU when none available
system.cpu.iq.fu_full::SimdPredAlu                  0      0.00%     98.11% # attempts to use FU when none available
system.cpu.iq.fu_full::MemRead                  13388      1.19%     99.29% # attempts to use FU when none available
system.cpu.iq.fu_full::MemWrite                  7969      0.71%    100.00% # attempts to use FU when none available
system.cpu.iq.fu_full::FloatMemRead                 0      0.00%    100.00% # attempts to use FU when none available
system.cpu.iq.fu_full::FloatMemWrite                0      0.00%    100.00% # attempts to use FU when none available
system.cpu.iq.fu_full::IprAccess                    0      0.00%    100.00% # attempts to use FU when none available
system.cpu.iq.fu_full::InstPrefetch                 0      0.00%    100.00% # attempts to use FU when none available
system.cpu.iq.int_alu_accesses                2690403                       # Number of integer alu accesses
system.cpu.iq.int_inst_queue_reads            5781342                       # Number of integer instruction queue reads
system.cpu.iq.int_inst_queue_wakeup_accesses      1470410                       # Number of integer instruction queue wakeup accesses
system.cpu.iq.int_inst_queue_writes           2512576                       # Number of integer instruction queue writes
system.cpu.iq.iqInstsAdded                    1774412                       # Number of instructions added to the IQ (excludes non-spec)
system.cpu.iq.iqInstsIssued                   1561876                       # Number of instructions issued
system.cpu.iq.iqNonSpecInstsAdded                 231                       # Number of non-speculative instructions added to the IQ
system.cpu.iq.iqSquashedInstsExamined          739288                       # Number of squashed instructions iterated over during squash; mainly for profiling
system.cpu.iq.iqSquashedInstsIssued             27393                       # Number of squashed instructions issued
system.cpu.iq.iqSquashedNonSpecRemoved             62                       # Number of squashed non-spec instructions that were removed
system.cpu.iq.iqSquashedOperandsExamined       586131                       # Number of squashed operands that are examined and possibly removed from graph
system.cpu.iq.issued_per_cycle::samples       1502815                       # Number of insts issued each cycle
system.cpu.iq.issued_per_cycle::mean         1.039300                       # Number of insts issued each cycle
system.cpu.iq.issued_per_cycle::stdev        1.632884                       # Number of insts issued each cycle
system.cpu.iq.issued_per_cycle::underflows            0      0.00%      0.00% # Number of insts issued each cycle
system.cpu.iq.issued_per_cycle::0              872660     58.07%     58.07% # Number of insts issued each cycle
system.cpu.iq.issued_per_cycle::1              230041     15.31%     73.38% # Number of insts issued each cycle
system.cpu.iq.issued_per_cycle::2              174102     11.59%     84.96% # Number of insts issued each cycle
system.cpu.iq.issued_per_cycle::3               83398      5.55%     90.51% # Number of insts issued each cycle
system.cpu.iq.issued_per_cycle::4               54031      3.60%     94.11% # Number of insts issued each cycle
system.cpu.iq.issued_per_cycle::5               40616      2.70%     96.81% # Number of insts issued each cycle
system.cpu.iq.issued_per_cycle::6               22977      1.53%     98.34% # Number of insts issued each cycle
system.cpu.iq.issued_per_cycle::7               23549      1.57%     99.90% # Number of insts issued each cycle
system.cpu.iq.issued_per_cycle::8                1441      0.10%    100.00% # Number of insts issued each cycle
system.cpu.iq.issued_per_cycle::overflows            0      0.00%    100.00% # Number of insts issued each cycle
system.cpu.iq.issued_per_cycle::min_value            0                       # Number of insts issued each cycle
system.cpu.iq.issued_per_cycle::max_value            8                       # Number of insts issued each cycle
system.cpu.iq.issued_per_cycle::total         1502815                       # Number of insts issued each cycle
system.cpu.iq.rate                           1.006766                       # Inst issue rate
system.cpu.iq.vec_alu_accesses                   1223                       # Number of vector alu accesses
system.cpu.iq.vec_inst_queue_reads               2401                       # Number of vector instruction queue reads
system.cpu.iq.vec_inst_queue_wakeup_accesses         1106                       # Number of vector instruction queue wakeup accesses
system.cpu.iq.vec_inst_queue_writes              1385                       # Number of vector instruction queue writes
system.cpu.itb.accesses                             0                       # DTB accesses
system.cpu.itb.align_faults                         0                       # Number of TLB faults due to alignment restrictions
system.cpu.itb.domain_faults                        0                       # Number of TLB faults due to domain restrictions
system.cpu.itb.flush_entries                        0                       # Number of entries that have been flushed from TLB
system.cpu.itb.flush_tlb                            0                       # Number of times complete TLB was flushed
system.cpu.itb.flush_tlb_asid                       0                       # Number of times TLB was flushed by ASID
system.cpu.itb.flush_tlb_mva                        0                       # Number of times TLB was flushed by MVA
system.cpu.itb.flush_tlb_mva_asid                   0                       # Number of times TLB was flushed by MVA & ASID
system.cpu.itb.hits                                 0                       # DTB hits
system.cpu.itb.inst_accesses                        0                       # ITB inst accesses
system.cpu.itb.inst_hits                            0                       # ITB inst hits
system.cpu.itb.inst_misses                          0                       # ITB inst misses
system.cpu.itb.misses                               0                       # DTB misses
system.cpu.itb.perms_faults                         0                       # Number of TLB faults due to permissions restrictions
system.cpu.itb.prefetch_faults                      0                       # Number of TLB faults due to prefetch
system.cpu.itb.read_accesses                        0                       # DTB read accesses
system.cpu.itb.read_hits                            0                       # DTB read hits
system.cpu.itb.read_misses                          0                       # DTB read misses
system.cpu.itb.stage2_mmu.stage2_tlb.accesses            0                       # DTB accesses
system.cpu.itb.stage2_mmu.stage2_tlb.align_faults            0                       # Number of TLB faults due to alignment restrictions
system.cpu.itb.stage2_mmu.stage2_tlb.domain_faults            0                       # Number of TLB faults due to domain restrictions
system.cpu.itb.stage2_mmu.stage2_tlb.flush_entries            0                       # Number of entries that have been flushed from TLB
system.cpu.itb.stage2_mmu.stage2_tlb.flush_tlb            0                       # Number of times complete TLB was flushed
system.cpu.itb.stage2_mmu.stage2_tlb.flush_tlb_asid            0                       # Number of times TLB was flushed by ASID
system.cpu.itb.stage2_mmu.stage2_tlb.flush_tlb_mva            0                       # Number of times TLB was flushed by MVA
system.cpu.itb.stage2_mmu.stage2_tlb.flush_tlb_mva_asid            0                       # Number of times TLB was flushed by MVA & ASID
system.cpu.itb.stage2_mmu.stage2_tlb.hits            0                       # DTB hits
system.cpu.itb.stage2_mmu.stage2_tlb.inst_accesses            0                       # ITB inst accesses
system.cpu.itb.stage2_mmu.stage2_tlb.inst_hits            0                       # ITB inst hits
system.cpu.itb.stage2_mmu.stage2_tlb.inst_misses            0                       # ITB inst misses
system.cpu.itb.stage2_mmu.stage2_tlb.misses            0                       # DTB misses
system.cpu.itb.stage2_mmu.stage2_tlb.perms_faults            0                       # Number of TLB faults due to permissions restrictions
system.cpu.itb.stage2_mmu.stage2_tlb.prefetch_faults            0                       # Number of TLB faults due to prefetch
system.cpu.itb.stage2_mmu.stage2_tlb.read_accesses            0                       # DTB read accesses
system.cpu.itb.stage2_mmu.stage2_tlb.read_hits            0                       # DTB read hits
system.cpu.itb.stage2_mmu.stage2_tlb.read_misses            0                       # DTB read misses
system.cpu.itb.stage2_mmu.stage2_tlb.walker.walkRequestOrigin_Requested::Data            0                       # Table walker requests started/completed, data/inst
system.cpu.itb.stage2_mmu.stage2_tlb.walker.walkRequestOrigin_Requested::Inst            0                       # Table walker requests started/completed, data/inst
system.cpu.itb.stage2_mmu.stage2_tlb.walker.walkRequestOrigin_Requested::total            0                       # Table walker requests started/completed, data/inst
system.cpu.itb.stage2_mmu.stage2_tlb.walker.walkRequestOrigin_Completed::Data            0                       # Table walker requests started/completed, data/inst
system.cpu.itb.stage2_mmu.stage2_tlb.walker.walkRequestOrigin_Completed::Inst            0                       # Table walker requests started/completed, data/inst
system.cpu.itb.stage2_mmu.stage2_tlb.walker.walkRequestOrigin_Completed::total            0                       # Table walker requests started/completed, data/inst
system.cpu.itb.stage2_mmu.stage2_tlb.walker.walkRequestOrigin::total            0                       # Table walker requests started/completed, data/inst
system.cpu.itb.stage2_mmu.stage2_tlb.walker.walks            0                       # Table walker walks requested
system.cpu.itb.stage2_mmu.stage2_tlb.write_accesses            0                       # DTB write accesses
system.cpu.itb.stage2_mmu.stage2_tlb.write_hits            0                       # DTB write hits
system.cpu.itb.stage2_mmu.stage2_tlb.write_misses            0                       # DTB write misses
system.cpu.itb.walker.walkRequestOrigin_Requested::Data            0                       # Table walker requests started/completed, data/inst
system.cpu.itb.walker.walkRequestOrigin_Requested::Inst            0                       # Table walker requests started/completed, data/inst
system.cpu.itb.walker.walkRequestOrigin_Requested::total            0                       # Table walker requests started/completed, data/inst
system.cpu.itb.walker.walkRequestOrigin_Completed::Data            0                       # Table walker requests started/completed, data/inst
system.cpu.itb.walker.walkRequestOrigin_Completed::Inst            0                       # Table walker requests started/completed, data/inst
system.cpu.itb.walker.walkRequestOrigin_Completed::total            0                       # Table walker requests started/completed, data/inst
system.cpu.itb.walker.walkRequestOrigin::total            0                       # Table walker requests started/completed, data/inst
system.cpu.itb.walker.walks                         0                       # Table walker walks requested
system.cpu.itb.write_accesses                       0                       # DTB write accesses
system.cpu.itb.write_hits                           0                       # DTB write hits
system.cpu.itb.write_misses                         0                       # DTB write misses
system.cpu.memDep0.conflictingLoads               103                       # Number of conflicting loads.
system.cpu.memDep0.conflictingStores               58                       # Number of conflicting stores.
system.cpu.memDep0.insertedLoads               296497                       # Number of loads inserted to the mem dependence unit.
system.cpu.memDep0.insertedStores              231145                       # Number of stores inserted to the mem dependence unit.
system.cpu.misc_regfile_reads                  984456                       # number of misc regfile reads
system.cpu.misc_regfile_writes                    569                       # number of misc regfile writes
system.cpu.numCycles                          1551379                       # number of cpu cycles simulated
system.cpu.numWorkItemsCompleted                    0                       # number of work items this cpu completed
system.cpu.numWorkItemsStarted                      0                       # number of work items this cpu started
system.cpu.rename.BlockCycles                  331096                       # Number of cycles rename is blocking
system.cpu.rename.CommittedMaps                914731                       # Number of HB maps that are committed
system.cpu.rename.IQFullEvents                 122709                       # Number of times rename has blocked due to IQ full
system.cpu.rename.IdleCycles                   190638                       # Number of cycles rename is idle
system.cpu.rename.LQFullEvents                    125                       # Number of times rename has blocked due to LQ full
system.cpu.rename.ROBFullEvents                     6                       # Number of times rename has blocked due to ROB full
system.cpu.rename.RenameLookups               2923480                       # Number of register rename lookups that rename has made
system.cpu.rename.RenamedInsts                1852616                       # Number of instructions processed by rename
system.cpu.rename.RenamedOperands             1619118                       # Number of destination operands rename has renamed
system.cpu.rename.RunCycles                    281590                       # Number of cycles rename is running
system.cpu.rename.SQFullEvents                 599786                       # Number of times rename has blocked due to SQ full
system.cpu.rename.SquashCycles                  12403                       # Number of cycles rename is squashing
system.cpu.rename.UnblockCycles                674555                       # Number of cycles rename is unblocking
system.cpu.rename.UndoneMaps                   704330                       # Number of HB maps that are undone due to squashing
system.cpu.rename.int_rename_lookups          2832521                       # Number of integer rename lookups
system.cpu.rename.serializeStallCycles          12533                       # count of cycles rename stalled for serializing inst
system.cpu.rename.serializingInsts                404                       # count of serializing insts renamed
system.cpu.rename.skidInsts                    191853                       # count of insts added to the skid buffer
system.cpu.rename.tempSerializingInsts            232                       # count of temporary serializing insts renamed
system.cpu.rename.vec_rename_lookups             1538                       # Number of vector rename lookups
system.cpu.rob.rob_reads                      2935702                       # The number of ROB reads
system.cpu.rob.rob_writes                     3329686                       # The number of ROB writes
system.cpu.timesIdled                             701                       # Number of times that the entire CPU went into an idle state and unscheduled itself
system.cpu.vec_regfile_reads                     1353                       # number of vector regfile reads
system.cpu.vec_regfile_writes                     587                       # number of vector regfile writes
system.cpu.workload.numSyscalls                    26                       # Number of system calls
system.membus.snoop_filter.hit_multi_requests            0                       # Number of requests hitting in the snoop filter with multiple (>1) holders of the requested data.
system.membus.snoop_filter.hit_multi_snoops            0                       # Number of snoops hitting in the snoop filter with multiple (>1) holders of the requested data.
system.membus.snoop_filter.hit_single_requests        13071                       # Number of requests hitting in the snoop filter with a single holder of the requested data.
system.membus.snoop_filter.hit_single_snoops            0                       # Number of snoops hitting in the snoop filter with a single holder of the requested data.
system.membus.snoop_filter.tot_requests         29042                       # Total number of requests made to the snoop filter.
system.membus.snoop_filter.tot_snoops               0                       # Total number of snoops made to the snoop filter.
system.tol2bus.snoop_filter.hit_multi_requests            1                       # Number of requests hitting in the snoop filter with multiple (>1) holders of the requested data.
system.tol2bus.snoop_filter.hit_multi_snoops            0                       # Number of snoops hitting in the snoop filter with multiple (>1) holders of the requested data.
system.tol2bus.snoop_filter.hit_single_requests        15983                       # Number of requests hitting in the snoop filter with a single holder of the requested data.
system.tol2bus.snoop_filter.hit_single_snoops           16                       # Number of snoops hitting in the snoop filter with a single holder of the requested data.
system.tol2bus.snoop_filter.tot_requests        32538                       # Total number of requests made to the snoop filter.
system.tol2bus.snoop_filter.tot_snoops             16                       # Total number of snoops made to the snoop filter.
system.membus.trans_dist::ReadResp                761                       # Transaction distribution
system.membus.trans_dist::WritebackDirty        13041                       # Transaction distribution
system.membus.trans_dist::CleanEvict               30                       # Transaction distribution
system.membus.trans_dist::ReadExReq             15203                       # Transaction distribution
system.membus.trans_dist::ReadExResp            15201                       # Transaction distribution
system.membus.trans_dist::ReadSharedReq           761                       # Transaction distribution
system.membus.trans_dist::InvalidateReq             7                       # Transaction distribution
system.membus.pkt_count_system.l2.mem_side::system.mem_ctrls.port        45004                       # Packet count per connected master and slave (bytes)
system.membus.pkt_count::total                  45004                       # Packet count per connected master and slave (bytes)
system.membus.pkt_size_system.l2.mem_side::system.mem_ctrls.port      1856192                       # Cumulative packet size per connected master and slave (bytes)
system.membus.pkt_size::total                 1856192                       # Cumulative packet size per connected master and slave (bytes)
system.membus.snoops                                0                       # Total snoops (count)
system.membus.snoopTraffic                          0                       # Total snoop traffic (bytes)
system.membus.snoop_fanout::samples             15971                       # Request fanout histogram
system.membus.snoop_fanout::mean                    0                       # Request fanout histogram
system.membus.snoop_fanout::stdev                   0                       # Request fanout histogram
system.membus.snoop_fanout::underflows              0      0.00%      0.00% # Request fanout histogram
system.membus.snoop_fanout::0                   15971    100.00%    100.00% # Request fanout histogram
system.membus.snoop_fanout::1                       0      0.00%    100.00% # Request fanout histogram
system.membus.snoop_fanout::overflows               0      0.00%    100.00% # Request fanout histogram
system.membus.snoop_fanout::min_value               0                       # Request fanout histogram
system.membus.snoop_fanout::max_value               0                       # Request fanout histogram
system.membus.snoop_fanout::total               15971                       # Request fanout histogram
system.membus.reqLayer0.occupancy            82699500                       # Layer occupancy (ticks)
system.membus.reqLayer0.utilization              10.7                       # Layer utilization (%)
system.membus.respLayer1.occupancy           83626000                       # Layer occupancy (ticks)
system.membus.respLayer1.utilization             10.8                       # Layer utilization (%)
system.membus.power_state.pwrStateResidencyTicks::UNDEFINED    775689000                       # Cumulative time (in ticks) in various power states
system.tol2bus.trans_dist::ReadResp              1344                       # Transaction distribution
system.tol2bus.trans_dist::WritebackDirty        28067                       # Transaction distribution
system.tol2bus.trans_dist::WritebackClean          949                       # Transaction distribution
system.tol2bus.trans_dist::CleanEvict              54                       # Transaction distribution
system.tol2bus.trans_dist::ReadExReq            15204                       # Transaction distribution
system.tol2bus.trans_dist::ReadExResp           15202                       # Transaction distribution
system.tol2bus.trans_dist::ReadCleanReq          1200                       # Transaction distribution
system.tol2bus.trans_dist::ReadSharedReq          144                       # Transaction distribution
system.tol2bus.trans_dist::InvalidateReq            7                       # Transaction distribution
system.tol2bus.trans_dist::InvalidateResp            7                       # Transaction distribution
system.tol2bus.pkt_count_system.cpu.icache.mem_side::system.l2.cpu_side         3349                       # Packet count per connected master and slave (bytes)
system.tol2bus.pkt_count_system.cpu.dcache.mem_side::system.l2.cpu_side        45742                       # Packet count per connected master and slave (bytes)
system.tol2bus.pkt_count::total                 49091                       # Packet count per connected master and slave (bytes)
system.tol2bus.pkt_size_system.cpu.icache.mem_side::system.l2.cpu_side       137536                       # Cumulative packet size per connected master and slave (bytes)
system.tol2bus.pkt_size_system.cpu.dcache.mem_side::system.l2.cpu_side      1943808                       # Cumulative packet size per connected master and slave (bytes)
system.tol2bus.pkt_size::total                2081344                       # Cumulative packet size per connected master and slave (bytes)
system.tol2bus.snoops                           13087                       # Total snoops (count)
system.tol2bus.snoopTraffic                    834624                       # Total snoop traffic (bytes)
system.tol2bus.snoop_fanout::samples            29642                       # Request fanout histogram
system.tol2bus.snoop_fanout::mean            0.000574                       # Request fanout histogram
system.tol2bus.snoop_fanout::stdev           0.023942                       # Request fanout histogram
system.tol2bus.snoop_fanout::underflows             0      0.00%      0.00% # Request fanout histogram
system.tol2bus.snoop_fanout::0                  29625     99.94%     99.94% # Request fanout histogram
system.tol2bus.snoop_fanout::1                     17      0.06%    100.00% # Request fanout histogram
system.tol2bus.snoop_fanout::2                      0      0.00%    100.00% # Request fanout histogram
system.tol2bus.snoop_fanout::overflows              0      0.00%    100.00% # Request fanout histogram
system.tol2bus.snoop_fanout::min_value              0                       # Request fanout histogram
system.tol2bus.snoop_fanout::max_value              1                       # Request fanout histogram
system.tol2bus.snoop_fanout::total              29642                       # Request fanout histogram
system.tol2bus.reqLayer0.occupancy           32244000                       # Layer occupancy (ticks)
system.tol2bus.reqLayer0.utilization              4.2                       # Layer utilization (%)
system.tol2bus.respLayer1.occupancy          23022999                       # Layer occupancy (ticks)
system.tol2bus.respLayer1.utilization             3.0                       # Layer utilization (%)
system.tol2bus.respLayer0.occupancy           1800000                       # Layer occupancy (ticks)
system.tol2bus.respLayer0.utilization             0.2                       # Layer utilization (%)
system.tol2bus.power_state.pwrStateResidencyTicks::UNDEFINED    775689000                       # Cumulative time (in ticks) in various power states
system.voltage_domain.voltage                       1                       # Voltage in Volts
system.clk_domain.clock                          1000                       # Clock period in ticks
system.l2.demand_hits::.cpu.inst                  583                       # number of demand (read+write) hits
system.l2.demand_hits::.cpu.data                    1                       # number of demand (read+write) hits
system.l2.demand_hits::total                      584                       # number of demand (read+write) hits
system.l2.overall_hits::.cpu.inst                 583                       # number of overall hits
system.l2.overall_hits::.cpu.data                   1                       # number of overall hits
system.l2.overall_hits::total                     584                       # number of overall hits
system.l2.demand_misses::.cpu.inst                617                       # number of demand (read+write) misses
system.l2.demand_misses::.cpu.data              15347                       # number of demand (read+write) misses
system.l2.demand_misses::total                  15964                       # number of demand (read+write) misses
system.l2.overall_misses::.cpu.inst               617                       # number of overall misses
system.l2.overall_misses::.cpu.data             15347                       # number of overall misses
system.l2.overall_misses::total                 15964                       # number of overall misses
system.l2.demand_miss_latency::.cpu.inst     48694500                       # number of demand (read+write) miss cycles
system.l2.demand_miss_latency::.cpu.data   1326983000                       # number of demand (read+write) miss cycles
system.l2.demand_miss_latency::total       1375677500                       # number of demand (read+write) miss cycles
system.l2.overall_miss_latency::.cpu.inst     48694500                       # number of overall miss cycles
system.l2.overall_miss_latency::.cpu.data   1326983000                       # number of overall miss cycles
system.l2.overall_miss_latency::total      1375677500                       # number of overall miss cycles
system.l2.demand_accesses::.cpu.inst             1200                       # number of demand (read+write) accesses
system.l2.demand_accesses::.cpu.data            15348                       # number of demand (read+write) accesses
system.l2.demand_accesses::total                16548                       # number of demand (read+write) accesses
system.l2.overall_accesses::.cpu.inst            1200                       # number of overall (read+write) accesses
system.l2.overall_accesses::.cpu.data           15348                       # number of overall (read+write) accesses
system.l2.overall_accesses::total               16548                       # number of overall (read+write) accesses
system.l2.demand_miss_rate::.cpu.inst        0.514167                       # miss rate for demand accesses
system.l2.demand_miss_rate::.cpu.data        0.999935                       # miss rate for demand accesses
system.l2.demand_miss_rate::total            0.964709                       # miss rate for demand accesses
system.l2.overall_miss_rate::.cpu.inst       0.514167                       # miss rate for overall accesses
system.l2.overall_miss_rate::.cpu.data       0.999935                       # miss rate for overall accesses
system.l2.overall_miss_rate::total           0.964709                       # miss rate for overall accesses
system.l2.demand_avg_miss_latency::.cpu.inst 78921.393841                       # average overall miss latency
system.l2.demand_avg_miss_latency::.cpu.data 86465.302665                       # average overall miss latency
system.l2.demand_avg_miss_latency::total 86173.734653                       # average overall miss latency
system.l2.overall_avg_miss_latency::.cpu.inst 78921.393841                       # average overall miss latency
system.l2.overall_avg_miss_latency::.cpu.data 86465.302665                       # average overall miss latency
system.l2.overall_avg_miss_latency::total 86173.734653                       # average overall miss latency
system.l2.blocked_cycles::no_mshrs                  0                       # number of cycles access was blocked
system.l2.blocked_cycles::no_targets                0                       # number of cycles access was blocked
system.l2.blocked::no_mshrs                         0                       # number of cycles access was blocked
system.l2.blocked::no_targets                       0                       # number of cycles access was blocked
system.l2.avg_blocked_cycles::no_mshrs            nan                       # average number of cycles each access was blocked
system.l2.avg_blocked_cycles::no_targets          nan                       # average number of cycles each access was blocked
system.l2.writebacks::.writebacks               13041                       # number of writebacks
system.l2.writebacks::total                     13041                       # number of writebacks
system.l2.demand_mshr_misses::.cpu.inst           617                       # number of demand (read+write) MSHR misses
system.l2.demand_mshr_misses::.cpu.data         15347                       # number of demand (read+write) MSHR misses
system.l2.demand_mshr_misses::total             15964                       # number of demand (read+write) MSHR misses
system.l2.overall_mshr_misses::.cpu.inst          617                       # number of overall MSHR misses
system.l2.overall_mshr_misses::.cpu.data        15347                       # number of overall MSHR misses
system.l2.overall_mshr_misses::total            15964                       # number of overall MSHR misses
system.l2.demand_mshr_miss_latency::.cpu.inst     42524500                       # number of demand (read+write) MSHR miss cycles
system.l2.demand_mshr_miss_latency::.cpu.data   1173533000                       # number of demand (read+write) MSHR miss cycles
system.l2.demand_mshr_miss_latency::total   1216057500                       # number of demand (read+write) MSHR miss cycles
system.l2.overall_mshr_miss_latency::.cpu.inst     42524500                       # number of overall MSHR miss cycles
system.l2.overall_mshr_miss_latency::.cpu.data   1173533000                       # number of overall MSHR miss cycles
system.l2.overall_mshr_miss_latency::total   1216057500                       # number of overall MSHR miss cycles
system.l2.demand_mshr_miss_rate::.cpu.inst     0.514167                       # mshr miss rate for demand accesses
system.l2.demand_mshr_miss_rate::.cpu.data     0.999935                       # mshr miss rate for demand accesses
system.l2.demand_mshr_miss_rate::total       0.964709                       # mshr miss rate for demand accesses
system.l2.overall_mshr_miss_rate::.cpu.inst     0.514167                       # mshr miss rate for overall accesses
system.l2.overall_mshr_miss_rate::.cpu.data     0.999935                       # mshr miss rate for overall accesses
system.l2.overall_mshr_miss_rate::total      0.964709                       # mshr miss rate for overall accesses
system.l2.demand_avg_mshr_miss_latency::.cpu.inst 68921.393841                       # average overall mshr miss latency
system.l2.demand_avg_mshr_miss_latency::.cpu.data 76466.605851                       # average overall mshr miss latency
system.l2.demand_avg_mshr_miss_latency::total 76174.987472                       # average overall mshr miss latency
system.l2.overall_avg_mshr_miss_latency::.cpu.inst 68921.393841                       # average overall mshr miss latency
system.l2.overall_avg_mshr_miss_latency::.cpu.data 76466.605851                       # average overall mshr miss latency
system.l2.overall_avg_mshr_miss_latency::total 76174.987472                       # average overall mshr miss latency
system.l2.replacements                          13087                       # number of replacements
system.l2.WritebackDirty_hits::.writebacks        15026                       # number of WritebackDirty hits
system.l2.WritebackDirty_hits::total            15026                       # number of WritebackDirty hits
system.l2.WritebackDirty_accesses::.writebacks        15026                       # number of WritebackDirty accesses(hits+misses)
system.l2.WritebackDirty_accesses::total        15026                       # number of WritebackDirty accesses(hits+misses)
system.l2.WritebackClean_hits::.writebacks          948                       # number of WritebackClean hits
system.l2.WritebackClean_hits::total              948                       # number of WritebackClean hits
system.l2.WritebackClean_accesses::.writebacks          948                       # number of WritebackClean accesses(hits+misses)
system.l2.WritebackClean_accesses::total          948                       # number of WritebackClean accesses(hits+misses)
system.l2.ReadExReq_hits::.cpu.data                 1                       # number of ReadExReq hits
system.l2.ReadExReq_hits::total                     1                       # number of ReadExReq hits
system.l2.ReadExReq_misses::.cpu.data           15203                       # number of ReadExReq misses
system.l2.ReadExReq_misses::total               15203                       # number of ReadExReq misses
system.l2.ReadExReq_miss_latency::.cpu.data   1314818500                       # number of ReadExReq miss cycles
system.l2.ReadExReq_miss_latency::total    1314818500                       # number of ReadExReq miss cycles
system.l2.ReadExReq_accesses::.cpu.data         15204                       # number of ReadExReq accesses(hits+misses)
system.l2.ReadExReq_accesses::total             15204                       # number of ReadExReq accesses(hits+misses)
system.l2.ReadExReq_miss_rate::.cpu.data     0.999934                       # miss rate for ReadExReq accesses
system.l2.ReadExReq_miss_rate::total         0.999934                       # miss rate for ReadExReq accesses
system.l2.ReadExReq_avg_miss_latency::.cpu.data 86484.147866                       # average ReadExReq miss latency
system.l2.ReadExReq_avg_miss_latency::total 86484.147866                       # average ReadExReq miss latency
system.l2.ReadExReq_mshr_misses::.cpu.data        15203                       # number of ReadExReq MSHR misses
system.l2.ReadExReq_mshr_misses::total          15203                       # number of ReadExReq MSHR misses
system.l2.ReadExReq_mshr_miss_latency::.cpu.data   1162808500                       # number of ReadExReq MSHR miss cycles
system.l2.ReadExReq_mshr_miss_latency::total   1162808500                       # number of ReadExReq MSHR miss cycles
system.l2.ReadExReq_mshr_miss_rate::.cpu.data     0.999934                       # mshr miss rate for ReadExReq accesses
system.l2.ReadExReq_mshr_miss_rate::total     0.999934                       # mshr miss rate for ReadExReq accesses
system.l2.ReadExReq_avg_mshr_miss_latency::.cpu.data 76485.463395                       # average ReadExReq mshr miss latency
system.l2.ReadExReq_avg_mshr_miss_latency::total 76485.463395                       # average ReadExReq mshr miss latency
system.l2.ReadCleanReq_hits::.cpu.inst            583                       # number of ReadCleanReq hits
system.l2.ReadCleanReq_hits::total                583                       # number of ReadCleanReq hits
system.l2.ReadCleanReq_misses::.cpu.inst          617                       # number of ReadCleanReq misses
system.l2.ReadCleanReq_misses::total              617                       # number of ReadCleanReq misses
system.l2.ReadCleanReq_miss_latency::.cpu.inst     48694500                       # number of ReadCleanReq miss cycles
system.l2.ReadCleanReq_miss_latency::total     48694500                       # number of ReadCleanReq miss cycles
system.l2.ReadCleanReq_accesses::.cpu.inst         1200                       # number of ReadCleanReq accesses(hits+misses)
system.l2.ReadCleanReq_accesses::total           1200                       # number of ReadCleanReq accesses(hits+misses)
system.l2.ReadCleanReq_miss_rate::.cpu.inst     0.514167                       # miss rate for ReadCleanReq accesses
system.l2.ReadCleanReq_miss_rate::total      0.514167                       # miss rate for ReadCleanReq accesses
system.l2.ReadCleanReq_avg_miss_latency::.cpu.inst 78921.393841                       # average ReadCleanReq miss latency
system.l2.ReadCleanReq_avg_miss_latency::total 78921.393841                       # average ReadCleanReq miss latency
system.l2.ReadCleanReq_mshr_misses::.cpu.inst          617                       # number of ReadCleanReq MSHR misses
system.l2.ReadCleanReq_mshr_misses::total          617                       # number of ReadCleanReq MSHR misses
system.l2.ReadCleanReq_mshr_miss_latency::.cpu.inst     42524500                       # number of ReadCleanReq MSHR miss cycles
system.l2.ReadCleanReq_mshr_miss_latency::total     42524500                       # number of ReadCleanReq MSHR miss cycles
system.l2.ReadCleanReq_mshr_miss_rate::.cpu.inst     0.514167                       # mshr miss rate for ReadCleanReq accesses
[...]
system.cpu.dcache.overall_misses::total        129007                       # number of overall misses
system.cpu.dcache.demand_miss_latency::.cpu.data  10034773798                       # number of demand (read+write) miss cycles
system.cpu.dcache.demand_miss_latency::total  10034773798                       # number of demand (read+write) miss cycles
system.cpu.dcache.overall_miss_latency::.cpu.data  10034773798                       # number of overall miss cycles
system.cpu.dcache.overall_miss_latency::total  10034773798                       # number of overall miss cycles
system.cpu.dcache.demand_accesses::.cpu.data       419704                       # number of demand (read+write) accesses
system.cpu.dcache.demand_accesses::total       419704                       # number of demand (read+write) accesses
system.cpu.dcache.overall_accesses::.cpu.data       419759                       # number of overall (read+write) accesses
system.cpu.dcache.overall_accesses::total       419759                       # number of overall (read+write) accesses
system.cpu.dcache.demand_miss_rate::.cpu.data     0.307364                       # miss rate for demand accesses
system.cpu.dcache.demand_miss_rate::total     0.307364                       # miss rate for demand accesses
system.cpu.dcache.overall_miss_rate::.cpu.data     0.307336                       # miss rate for overall accesses
system.cpu.dcache.overall_miss_rate::total     0.307336                       # miss rate for overall accesses
system.cpu.dcache.demand_avg_miss_latency::.cpu.data 77787.738159                       # average overall miss latency
system.cpu.dcache.demand_avg_miss_latency::total 77787.738159                       # average overall miss latency
system.cpu.dcache.overall_avg_miss_latency::.cpu.data 77784.723294                       # average overall miss latency
system.cpu.dcache.overall_avg_miss_latency::total 77784.723294                       # average overall miss latency
system.cpu.dcache.blocked_cycles::no_mshrs        81645                       # number of cycles access was blocked
system.cpu.dcache.blocked_cycles::no_targets            0                       # number of cycles access was blocked
system.cpu.dcache.blocked::no_mshrs              3732                       # number of cycles access was blocked
system.cpu.dcache.blocked::no_targets               0                       # number of cycles access was blocked
system.cpu.dcache.avg_blocked_cycles::no_mshrs    21.877010                       # average number of cycles each access was blocked
system.cpu.dcache.avg_blocked_cycles::no_targets          nan                       # average number of cycles each access was blocked
system.cpu.dcache.writebacks::.writebacks        15026                       # number of writebacks
system.cpu.dcache.writebacks::total             15026                       # number of writebacks
system.cpu.dcache.demand_mshr_hits::.cpu.data       113651                       # number of demand (read+write) MSHR hits
system.cpu.dcache.demand_mshr_hits::total       113651                       # number of demand (read+write) MSHR hits
system.cpu.dcache.overall_mshr_hits::.cpu.data       113651                       # number of overall MSHR hits
system.cpu.dcache.overall_mshr_hits::total       113651                       # number of overall MSHR hits
system.cpu.dcache.demand_mshr_misses::.cpu.data        15351                       # number of demand (read+write) MSHR misses
system.cpu.dcache.demand_mshr_misses::total        15351                       # number of demand (read+write) MSHR misses
system.cpu.dcache.overall_mshr_misses::.cpu.data        15354                       # number of overall MSHR misses
system.cpu.dcache.overall_mshr_misses::total        15354                       # number of overall MSHR misses
system.cpu.dcache.demand_mshr_miss_latency::.cpu.data   1349902996                       # number of demand (read+write) MSHR miss cycles
system.cpu.dcache.demand_mshr_miss_latency::total   1349902996                       # number of demand (read+write) MSHR miss cycles
system.cpu.dcache.overall_mshr_miss_latency::.cpu.data   1350151496                       # number of overall MSHR miss cycles
system.cpu.dcache.overall_mshr_miss_latency::total   1350151496                       # number of overall MSHR miss cycles
system.cpu.dcache.demand_mshr_miss_rate::.cpu.data     0.036576                       # mshr miss rate for demand accesses
system.cpu.dcache.demand_mshr_miss_rate::total     0.036576                       # mshr miss rate for demand accesses
system.cpu.dcache.overall_mshr_miss_rate::.cpu.data     0.036578                       # mshr miss rate for overall accesses
system.cpu.dcache.overall_mshr_miss_rate::total     0.036578                       # mshr miss rate for overall accesses
system.cpu.dcache.demand_avg_mshr_miss_latency::.cpu.data 87935.834538                       # average overall mshr miss latency
system.cpu.dcache.demand_avg_mshr_miss_latency::total 87935.834538                       # average overall mshr miss latency
system.cpu.dcache.overall_avg_mshr_miss_latency::.cpu.data 87934.837567                       # average overall mshr miss latency
system.cpu.dcache.overall_avg_mshr_miss_latency::total 87934.837567                       # average overall mshr miss latency
system.cpu.dcache.replacements                  15034                       # number of replacements
system.cpu.dcache.ReadReq_hits::.cpu.data       285559                       # number of ReadReq hits
system.cpu.dcache.ReadReq_hits::total          285559                       # number of ReadReq hits
system.cpu.dcache.ReadReq_misses::.cpu.data          325                       # number of ReadReq misses
system.cpu.dcache.ReadReq_misses::total           325                       # number of ReadReq misses
system.cpu.dcache.ReadReq_miss_latency::.cpu.data     26671000                       # number of ReadReq miss cycles
system.cpu.dcache.ReadReq_miss_latency::total     26671000                       # number of ReadReq miss cycles
system.cpu.dcache.ReadReq_accesses::.cpu.data       285884                       # number of ReadReq accesses(hits+misses)
system.cpu.dcache.ReadReq_accesses::total       285884                       # number of ReadReq accesses(hits+misses)
system.cpu.dcache.ReadReq_miss_rate::.cpu.data     0.001137                       # miss rate for ReadReq accesses
system.cpu.dcache.ReadReq_miss_rate::total     0.001137                       # miss rate for ReadReq accesses
system.cpu.dcache.ReadReq_avg_miss_latency::.cpu.data 82064.615385                       # average ReadReq miss latency
system.cpu.dcache.ReadReq_avg_miss_latency::total 82064.615385                       # average ReadReq miss latency
system.cpu.dcache.ReadReq_mshr_hits::.cpu.data          185                       # number of ReadReq MSHR hits
system.cpu.dcache.ReadReq_mshr_hits::total          185                       # number of ReadReq MSHR hits
system.cpu.dcache.ReadReq_mshr_misses::.cpu.data          140                       # number of ReadReq MSHR misses
system.cpu.dcache.ReadReq_mshr_misses::total          140                       # number of ReadReq MSHR misses
system.cpu.dcache.ReadReq_mshr_miss_latency::.cpu.data     12051000                       # number of ReadReq MSHR miss cycles
system.cpu.dcache.ReadReq_mshr_miss_latency::total     12051000                       # number of ReadReq MSHR miss cycles
system.cpu.dcache.ReadReq_mshr_miss_rate::.cpu.data     0.000490                       # mshr miss rate for ReadReq accesses
system.cpu.dcache.ReadReq_mshr_miss_rate::total     0.000490                       # mshr miss rate for ReadReq accesses
system.cpu.dcache.ReadReq_avg_mshr_miss_latency::.cpu.data 86078.571429                       # average ReadReq mshr miss latency
system.cpu.dcache.ReadReq_avg_mshr_miss_latency::total 86078.571429                       # average ReadReq mshr miss latency
system.cpu.dcache.WriteReq_hits::.cpu.data         5143                       # number of WriteReq hits
system.cpu.dcache.WriteReq_hits::total           5143                       # number of WriteReq hits
system.cpu.dcache.WriteReq_misses::.cpu.data       128670                       # number of WriteReq misses
system.cpu.dcache.WriteReq_misses::total       128670                       # number of WriteReq misses
system.cpu.dcache.WriteReq_miss_latency::.cpu.data  10007880300                       # number of WriteReq miss cycles
system.cpu.dcache.WriteReq_miss_latency::total  10007880300                       # number of WriteReq miss cycles
system.cpu.dcache.WriteReq_accesses::.cpu.data       133813                       # number of WriteReq accesses(hits+misses)
system.cpu.dcache.WriteReq_accesses::total       133813                       # number of WriteReq accesses(hits+misses)
system.cpu.dcache.WriteReq_miss_rate::.cpu.data     0.961566                       # miss rate for WriteReq accesses
system.cpu.dcache.WriteReq_miss_rate::total     0.961566                       # miss rate for WriteReq accesses
system.cpu.dcache.WriteReq_avg_miss_latency::.cpu.data 77779.438097                       # average WriteReq miss latency
system.cpu.dcache.WriteReq_avg_miss_latency::total 77779.438097                       # average WriteReq miss latency
system.cpu.dcache.WriteReq_mshr_hits::.cpu.data       113466                       # number of WriteReq MSHR hits
system.cpu.dcache.WriteReq_mshr_hits::total       113466                       # number of WriteReq MSHR hits
system.cpu.dcache.WriteReq_mshr_misses::.cpu.data        15204                       # number of WriteReq MSHR misses
system.cpu.dcache.WriteReq_mshr_misses::total        15204                       # number of WriteReq MSHR misses
system.cpu.dcache.WriteReq_mshr_miss_latency::.cpu.data   1337636498                       # number of WriteReq MSHR miss cycles
system.cpu.dcache.WriteReq_mshr_miss_latency::total   1337636498                       # number of WriteReq MSHR miss cycles
system.cpu.dcache.WriteReq_mshr_miss_rate::.cpu.data     0.113621                       # mshr miss rate for WriteReq accesses
system.cpu.dcache.WriteReq_mshr_miss_rate::total     0.113621                       # mshr miss rate for WriteReq accesses
system.cpu.dcache.WriteReq_avg_mshr_miss_latency::.cpu.data 87979.248750                       # average WriteReq mshr miss latency
system.cpu.dcache.WriteReq_avg_mshr_miss_latency::total 87979.248750                       # average WriteReq mshr miss latency
system.cpu.dcache.SoftPFReq_hits::.cpu.data           50                       # number of SoftPFReq hits
system.cpu.dcache.SoftPFReq_hits::total            50                       # number of SoftPFReq hits
system.cpu.dcache.SoftPFReq_misses::.cpu.data            5                       # number of SoftPFReq misses
system.cpu.dcache.SoftPFReq_misses::total            5                       # number of SoftPFReq misses
system.cpu.dcache.SoftPFReq_accesses::.cpu.data           55                       # number of SoftPFReq accesses(hits+misses)
system.cpu.dcache.SoftPFReq_accesses::total           55                       # number of SoftPFReq accesses(hits+misses)
system.cpu.dcache.SoftPFReq_miss_rate::.cpu.data     0.090909                       # miss rate for SoftPFReq accesses
system.cpu.dcache.SoftPFReq_miss_rate::total     0.090909                       # miss rate for SoftPFReq accesses
system.cpu.dcache.SoftPFReq_mshr_misses::.cpu.data            3                       # number of SoftPFReq MSHR misses
system.cpu.dcache.SoftPFReq_mshr_misses::total            3                       # number of SoftPFReq MSHR misses
system.cpu.dcache.SoftPFReq_mshr_miss_latency::.cpu.data       248500                       # number of SoftPFReq MSHR miss cycles
system.cpu.dcache.SoftPFReq_mshr_miss_latency::total       248500                       # number of SoftPFReq MSHR miss cycles
system.cpu.dcache.SoftPFReq_mshr_miss_rate::.cpu.data     0.054545                       # mshr miss rate for SoftPFReq accesses
system.cpu.dcache.SoftPFReq_mshr_miss_rate::total     0.054545                       # mshr miss rate for SoftPFReq accesses
system.cpu.dcache.SoftPFReq_avg_mshr_miss_latency::.cpu.data 82833.333333                       # average SoftPFReq mshr miss latency
system.cpu.dcache.SoftPFReq_avg_mshr_miss_latency::total 82833.333333                       # average SoftPFReq mshr miss latency
system.cpu.dcache.WriteLineReq_misses::.cpu.data            7                       # number of WriteLineReq misses
system.cpu.dcache.WriteLineReq_misses::total            7                       # number of WriteLineReq misses
system.cpu.dcache.WriteLineReq_miss_latency::.cpu.data       222498                       # number of WriteLineReq miss cycles
system.cpu.dcache.WriteLineReq_miss_latency::total       222498                       # number of WriteLineReq miss cycles
system.cpu.dcache.WriteLineReq_accesses::.cpu.data            7                       # number of WriteLineReq accesses(hits+misses)
system.cpu.dcache.WriteLineReq_accesses::total            7                       # number of WriteLineReq accesses(hits+misses)
system.cpu.dcache.WriteLineReq_miss_rate::.cpu.data            1                       # miss rate for WriteLineReq accesses
system.cpu.dcache.WriteLineReq_miss_rate::total            1                       # miss rate for WriteLineReq accesses
system.cpu.dcache.WriteLineReq_avg_miss_latency::.cpu.data 31785.428571                       # average WriteLineReq miss latency
system.cpu.dcache.WriteLineReq_avg_miss_latency::total 31785.428571                       # average WriteLineReq miss latency
system.cpu.dcache.WriteLineReq_mshr_misses::.cpu.data            7                       # number of WriteLineReq MSHR misses
system.cpu.dcache.WriteLineReq_mshr_misses::total            7                       # number of WriteLineReq MSHR misses
system.cpu.dcache.WriteLineReq_mshr_miss_latency::.cpu.data       215498                       # number of WriteLineReq MSHR miss cycles
system.cpu.dcache.WriteLineReq_mshr_miss_latency::total       215498                       # number of WriteLineReq MSHR miss cycles
system.cpu.dcache.WriteLineReq_mshr_miss_rate::.cpu.data            1                       # mshr miss rate for WriteLineReq accesses
system.cpu.dcache.WriteLineReq_mshr_miss_rate::total            1                       # mshr miss rate for WriteLineReq accesses
system.cpu.dcache.WriteLineReq_avg_mshr_miss_latency::.cpu.data 30785.428571                       # average WriteLineReq mshr miss latency
system.cpu.dcache.WriteLineReq_avg_mshr_miss_latency::total 30785.428571                       # average WriteLineReq mshr miss latency
system.cpu.dcache.LoadLockedReq_hits::.cpu.data          178                       # number of LoadLockedReq hits
system.cpu.dcache.LoadLockedReq_hits::total          178                       # number of LoadLockedReq hits
system.cpu.dcache.LoadLockedReq_misses::.cpu.data            1                       # number of LoadLockedReq misses
system.cpu.dcache.LoadLockedReq_misses::total            1                       # number of LoadLockedReq misses
system.cpu.dcache.LoadLockedReq_miss_latency::.cpu.data        86500                       # number of LoadLockedReq miss cycles
system.cpu.dcache.LoadLockedReq_miss_latency::total        86500                       # number of LoadLockedReq miss cycles
system.cpu.dcache.LoadLockedReq_accesses::.cpu.data          179                       # number of LoadLockedReq accesses(hits+misses)
system.cpu.dcache.LoadLockedReq_accesses::total          179                       # number of LoadLockedReq accesses(hits+misses)
system.cpu.dcache.LoadLockedReq_miss_rate::.cpu.data     0.005587                       # miss rate for LoadLockedReq accesses
system.cpu.dcache.LoadLockedReq_miss_rate::total     0.005587                       # miss rate for LoadLockedReq accesses
system.cpu.dcache.LoadLockedReq_avg_miss_latency::.cpu.data        86500                       # average LoadLockedReq miss latency
system.cpu.dcache.LoadLockedReq_avg_miss_latency::total        86500                       # average LoadLockedReq miss latency
system.cpu.dcache.LoadLockedReq_mshr_misses::.cpu.data            1                       # number of LoadLockedReq MSHR misses
system.cpu.dcache.LoadLockedReq_mshr_misses::total            1                       # number of LoadLockedReq MSHR misses
system.cpu.dcache.LoadLockedReq_mshr_miss_latency::.cpu.data        85500                       # number of LoadLockedReq MSHR miss cycles
system.cpu.dcache.LoadLockedReq_mshr_miss_latency::total        85500                       # number of LoadLockedReq MSHR miss cycles
system.cpu.dcache.LoadLockedReq_mshr_miss_rate::.cpu.data     0.005587                       # mshr miss rate for LoadLockedReq accesses
system.cpu.dcache.LoadLockedReq_mshr_miss_rate::total     0.005587                       # mshr miss rate for LoadLockedReq accesses
system.cpu.dcache.LoadLockedReq_avg_mshr_miss_latency::.cpu.data        85500                       # average LoadLockedReq mshr miss latency
system.cpu.dcache.LoadLockedReq_avg_mshr_miss_latency::total        85500                       # average LoadLockedReq mshr miss latency
system.cpu.dcache.StoreCondReq_hits::.cpu.data          142                       # number of StoreCondReq hits
system.cpu.dcache.StoreCondReq_hits::total          142                       # number of StoreCondReq hits
system.cpu.dcache.StoreCondReq_accesses::.cpu.data          142                       # number of StoreCondReq accesses(hits+misses)
system.cpu.dcache.StoreCondReq_accesses::total          142                       # number of StoreCondReq accesses(hits+misses)
system.cpu.dcache.power_state.pwrStateResidencyTicks::UNDEFINED    775689000                       # Cumulative time (in ticks) in various power states
system.cpu.dcache.tags.tagsinuse           310.077422                       # Cycle average of tags in use
system.cpu.dcache.tags.total_refs              306425                       # Total number of references to valid blocks.
system.cpu.dcache.tags.sampled_refs             15353                       # Sample count of references to valid blocks.
system.cpu.dcache.tags.avg_refs             19.958640                       # Average number of references to valid blocks.
system.cpu.dcache.tags.warmup_cycle            249500                       # Cycle when the warmup percentage was hit.
system.cpu.dcache.tags.occ_blocks::.cpu.data   310.077422                       # Average occupied blocks per requestor
system.cpu.dcache.tags.occ_percent::.cpu.data     0.302810                       # Average percentage of cache occupancy
system.cpu.dcache.tags.occ_percent::total     0.302810                       # Average percentage of cache occupancy
system.cpu.dcache.tags.occ_task_id_blocks::1024          319                       # Occupied blocks per task id
system.cpu.dcache.tags.age_task_id_blocks_1024::0           64                       # Occupied blocks per task id
system.cpu.dcache.tags.age_task_id_blocks_1024::2          255                       # Occupied blocks per task id
system.cpu.dcache.tags.occ_task_id_percent::1024     0.311523                       # Percentage of cache occupancy per task id
system.cpu.dcache.tags.tag_accesses            855513                       # Number of tag accesses
system.cpu.dcache.tags.data_accesses           855513                       # Number of data accesses
system.cpu.dcache.tags.power_state.pwrStateResidencyTicks::UNDEFINED    775689000                       # Cumulative time (in ticks) in various power states
system.cpu.power_state.pwrStateResidencyTicks::ON    775689000                       # Cumulative time (in ticks) in various power states

---------- End Simulation Statistics   ----------
