
---------- Begin Simulation Statistics ----------
final_tick                                  922974500                       # Number of ticks from beginning of simulation (restored from checkpoints and never reset)
host_inst_rate                                  54081                       # Simulator instruction rate (inst/s)
host_mem_usage                                 869108                       # Number of bytes of host memory used
host_op_rate                                    56505                       # Simulator op (including micro ops) rate (op/s)
host_seconds                                    18.49                       # Real time elapsed on the host
host_tick_rate                               49914413                       # Simulator tick rate (ticks/s)
sim_freq                                 1000000000000                       # Frequency of simulated ticks
sim_insts                                     1000005                       # Number of instructions simulated
sim_ops                                       1044845                       # Number of ops (including micro ops) simulated
sim_seconds                                  0.000923                       # Number of seconds simulated
sim_ticks                                   922974500                       # Number of ticks simulated
system.cpu.branchPred.BTBCorrect                    0                       # Number of correct BTB predictions (this stat may not work properly.
system.cpu.branchPred.BTBHitPct             89.735817                       # BTB Hit Percentage
system.cpu.branchPred.BTBHits                  191236                       # Number of BTB hits
system.cpu.branchPred.BTBLookups               213110                       # Number of BTB lookups
system.cpu.branchPred.RASInCorrect                  0                       # Number of incorrect RAS predictions.
system.cpu.branchPred.condIncorrect            126194                       # Number of conditional branches incorrect
system.cpu.branchPred.condPredicted            771683                       # Number of conditional branches predicted
system.cpu.branchPred.indirectHits                125                       # Number of indirect target hits.
system.cpu.branchPred.indirectLookups             373                       # Number of indirect predictor lookups.
system.cpu.branchPred.indirectMisses              248                       # Number of indirect misses.
system.cpu.branchPred.lookups                  919661                       # Number of BP lookups
system.cpu.branchPred.usedRAS                   29100                       # Number of times the RAS was used to get a target.
system.cpu.branchPredindirectMispredicted           90                       # Number of mispredicted indirect branches.
system.cpu.cc_regfile_reads                   1300665                       # number of cc regfile reads
system.cpu.cc_regfile_writes                  1368039                       # number of cc regfile writes
system.cpu.commit.amos                              0                       # Number of atomic instructions committed
system.cpu.commit.branchMispredicts            125527                       # The number of times a branch was mispredicted
system.cpu.commit.branches                     287670                       # Number of branches committed
system.cpu.commit.bw_lim_events                 17351                       # number cycles where commit BW limit reached
system.cpu.commit.commitNonSpecStalls              22                       # The number of times commit has been forced to stall to communicate backwards
system.cpu.commit.commitSquashedInsts         2461549                       # The number of squashed insts skipped by commit
system.cpu.commit.committedInsts              1000877                       # Number of instructions committed
system.cpu.commit.committedOps                1045717                       # Number of ops (including micro ops) committed
system.cpu.commit.committed_per_cycle::samples      1389594                       # Number of insts commited each cycle
system.cpu.commit.committed_per_cycle::mean     0.752534                       # Number of insts commited each cycle
system.cpu.commit.committed_per_cycle::stdev     1.574674                       # Number of insts commited each cycle
system.cpu.commit.committed_per_cycle::underflows            0      0.00%      0.00% # Number of insts commited each cycle
system.cpu.commit.committed_per_cycle::0       967203     69.60%     69.60% # Number of insts commited each cycle
system.cpu.commit.committed_per_cycle::1       191294     13.77%     83.37% # Number of insts commited each cycle
system.cpu.commit.committed_per_cycle::2        92007      6.62%     89.99% # Number of insts commited each cycle
system.cpu.commit.committed_per_cycle::3        45265      3.26%     93.25% # Number of insts commited each cycle
system.cpu.commit.committed_per_cycle::4        29930      2.15%     95.40% # Number of insts commited each cycle
system.cpu.commit.committed_per_cycle::5        21125      1.52%     96.92% # Number of insts commited each cycle
system.cpu.commit.committed_per_cycle::6         7472      0.54%     97.46% # Number of insts commited each cycle
system.cpu.commit.committed_per_cycle::7        17947      1.29%     98.75% # Number of insts commited each cycle
system.cpu.commit.committed_per_cycle::8        17351      1.25%    100.00% # Number of insts commited each cycle
system.cpu.commit.committed_per_cycle::overflows            0      0.00%    100.00% # Number of insts commited each cycle
system.cpu.commit.committed_per_cycle::min_value            0                       # Number of insts commited each cycle
system.cpu.commit.committed_per_cycle::max_value            8                       # Number of insts commited each cycle
system.cpu.commit.committed_per_cycle::total      1389594                       # Number of insts commited each cycle
system.cpu.commit.fp_insts                          0                       # Number of committed floating point instructions.
system.cpu.commit.function_calls                12470                       # Number of function calls committed.
system.cpu.commit.int_insts                    867225                       # Number of committed integer instructions.
system.cpu.commit.loads                        155110                       # Number of loads committed
system.cpu.commit.membars                           8                       # Number of memory barriers committed
system.cpu.commit.op_class_0::No_OpClass            8      0.00%      0.00% # Class of committed instruction
system.cpu.commit.op_class_0::IntAlu           851311     81.41%     81.41% # Class of committed instruction
system.cpu.commit.op_class_0::IntMult             267      0.03%     81.44% # Class of committed instruction
system.cpu.commit.op_class_0::IntDiv              758      0.07%     81.51% # Class of committed instruction
system.cpu.commit.op_class_0::FloatAdd              0      0.00%     81.51% # Class of committed instruction
system.cpu.commit.op_class_0::FloatCmp              0      0.00%     81.51% # Class of committed instruction
system.cpu.commit.op_class_0::FloatCvt              0      0.00%     81.51% # Class of committed instruction
system.cpu.commit.op_class_0::FloatMult             0      0.00%     81.51% # Class of committed instruction
system.cpu.commit.op_class_0::FloatMultAcc            0      0.00%     81.51% # Class of committed instruction
system.cpu.commit.op_class_0::FloatDiv              0      0.00%     81.51% # Class of committed instruction
system.cpu.commit.op_class_0::FloatMisc             0      0.00%     81.51% # Class of committed instruction
system.cpu.commit.op_class_0::FloatSqrt             0      0.00%     81.51% # Class of committed instruction
system.cpu.commit.op_class_0::SimdAdd              28      0.00%     81.51% # Class of committed instruction
system.cpu.commit.op_class_0::SimdAddAcc            0      0.00%     81.51% # Class of committed instruction
system.cpu.commit.op_class_0::SimdAlu              30      0.00%     81.51% # Class of committed instruction
system.cpu.commit.op_class_0::SimdCmp              32      0.00%     81.52% # Class of committed instruction
system.cpu.commit.op_class_0::SimdCvt               0      0.00%     81.52% # Class of committed instruction
system.cpu.commit.op_class_0::SimdMisc             68      0.01%     81.52% # Class of committed instruction
system.cpu.commit.op_class_0::SimdMult              0      0.00%     81.52% # Class of committed instruction
system.cpu.commit.op_class_0::SimdMultAcc            0      0.00%     81.52% # Class of committed instruction
system.cpu.commit.op_class_0::SimdShift             0      0.00%     81.52% # Class of committed instruction
system.cpu.commit.op_class_0::SimdShiftAcc            0      0.00%     81.52% # Class of committed instruction
system.cpu.commit.op_class_0::SimdDiv               0      0.00%     81.52% # Class of committed instruction
system.cpu.commit.op_class_0::SimdSqrt              0      0.00%     81.52% # Class of committed instruction
system.cpu.commit.op_class_0::SimdFloatAdd            0      0.00%     81.52% # Class of committed instruction
system.cpu.commit.op_class_0::SimdFloatAlu            0      0.00%     81.52% # Class of committed instruction
system.cpu.commit.op_class_0::SimdFloatCmp            0      0.00%     81.52% # Class of committed instruction
system.cpu.commit.op_class_0::SimdFloatCvt            0      0.00%     81.52% # Class of committed instruction
system.cpu.commit.op_class_0::SimdFloatDiv            0      0.00%     81.52% # Class of committed instruction
system.cpu.commit.op_class_0::SimdFloatMisc            0      0.00%     81.52% # Class of committed instruction
system.cpu.commit.op_class_0::SimdFloatMult            0      0.00%     81.52% # Class of committed instruction
system.cpu.commit.op_class_0::SimdFloatMultAcc            0      0.00%     81.52% # Class of committed instruction
system.cpu.commit.op_class_0::SimdFloatSqrt            0      0.00%     81.52% # Class of committed instruction
system.cpu.commit.op_class_0::SimdReduceAdd            0      0.00%     81.52% # Class of committed instruction
system.cpu.commit.op_class_0::SimdReduceAlu            0      0.00%     81.52% # Class of committed instruction
system.cpu.commit.op_class_0::SimdReduceCmp            0      0.00%     81.52% # Class of committed instruction
system.cpu.commit.op_class_0::SimdFloatReduceAdd            0      0.00%     81.52% # Class of committed instruction
system.cpu.commit.op_class_0::SimdFloatReduceCmp            0      0.00%     81.52% # Class of committed instruction
system.cpu.commit.op_class_0::SimdAes               0      0.00%     81.52% # Class of committed instruction
system.cpu.commit.op_class_0::SimdAesMix            0      0.00%     81.52% # Class of committed instruction
system.cpu.commit.op_class_0::SimdSha1Hash            0      0.00%     81.52% # Class of committed instruction
system.cpu.commit.op_class_0::SimdSha1Hash2            0      0.00%     81.52% # Class of committed instruction
system.cpu.commit.op_class_0::SimdSha256Hash            0      0.00%     81.52% # Class of committed instruction
system.cpu.commit.op_class_0::SimdSha256Hash2            0      0.00%     81.52% # Class of committed instruction
system.cpu.commit.op_class_0::SimdShaSigma2            0      0.00%     81.52% # Class of committed instruction
system.cpu.commit.op_class_0::SimdShaSigma3            0      0.00%     81.52% # Class of committed instruction
system.cpu.commit.op_class_0::SimdPredAlu            0      0.00%     81.52% # Class of committed instruction
system.cpu.commit.op_class_0::MemRead          155110     14.83%     96.36% # Class of committed instruction
system.cpu.commit.op_class_0::MemWrite          38105      3.64%    100.00% # Class of committed instruction
system.cpu.commit.op_class_0::FloatMemRead            0      0.00%    100.00% # Class of committed instruction
system.cpu.commit.op_class_0::FloatMemWrite            0      0.00%    100.00% # Class of committed instruction
system.cpu.commit.op_class_0::IprAccess             0      0.00%    100.00% # Class of committed instruction
system.cpu.commit.op_class_0::InstPrefetch            0      0.00%    100.00% # Class of committed instruction
system.cpu.commit.op_class_0::total           1045717                       # Class of committed instruction
system.cpu.commit.refs                         193215                       # Number of memory references committed
system.cpu.commit.swp_count                         0                       # Number of s/w prefetches committed
system.cpu.commit.vec_insts                       956                       # Number of committed Vector instructions.
system.cpu.committedInsts                     1000005                       # Number of Instructions Simulated
system.cpu.committedOps                       1044845                       # Number of Ops (including micro ops) Simulated
system.cpu.cpi                               1.845941                       # CPI: Cycles Per Instruction
system.cpu.cpi_total                         1.845941                       # CPI: Total CPI of All Threads
system.cpu.decode.BlockedCycles                294679                       # Number of cycles decode is blocked
system.cpu.decode.BranchMispred                   720                       # Number of times decode detected a branch misprediction
system.cpu.decode.BranchResolved               185207                       # Number of times decode resolved a branch
system.cpu.decode.DecodedInsts                4975190                       # Number of instructions handled by decode
system.cpu.decode.IdleCycles                   533277                       # Number of cycles decode is idle
system.cpu.decode.RunCycles                    734618                       # Number of cycles decode is running
system.cpu.decode.SquashCycles                 125615                       # Number of cycles decode is squashing
system.cpu.decode.SquashedInsts                  2437                       # Number of squashed instructions handled by decode
system.cpu.decode.UnblockCycles                 87088                       # Number of cycles decode is unblocking
system.cpu.dtb.accesses                             0                       # DTB accesses
system.cpu.dtb.align_faults                         0                       # Number of TLB faults due to alignment restrictions
system.cpu.dtb.domain_faults                        0                       # Number of TLB faults due to domain restrictions
system.cpu.dtb.flush_entries                        0                       # Number of entries that have been flushed from TLB
system.cpu.dtb.flush_tlb                            0                       # Number of times complete TLB was flushed
system.cpu.dtb.flush_tlb_asid                       0                       # Number of times TLB was flushed by ASID
system.cpu.dtb.flush_tlb_mva                        0                       # Number of times TLB was flushed by MVA
system.cpu.dtb.flush_tlb_mva_asid                   0                       # Number of times TLB was flushed by MVA & ASID
system.cpu.dtb.hits                                 0                       # DTB hits
system.cpu.dtb.inst_accesses                        0                       # ITB inst accesses
system.cpu.dtb.inst_hits                            0                       # ITB inst hits
system.cpu.dtb.inst_misses                          0                       # ITB inst misses
system.cpu.dtb.misses                               0                       # DTB misses
system.cpu.dtb.perms_faults                         0                       # Number of TLB faults due to permissions restrictions
system.cpu.dtb.prefetch_faults                      0                       # Number of TLB faults due to prefetch
system.cpu.dtb.read_accesses                        0                       # DTB read accesses
system.cpu.dtb.read_hits                            0                       # DTB read hits
system.cpu.dtb.read_misses                          0                       # DTB read misses
system.cpu.dtb.stage2_mmu.stage2_tlb.accesses            0                       # DTB accesses
system.cpu.dtb.stage2_mmu.stage2_tlb.align_faults            0                       # Number of TLB faults due to alignment restrictions
system.cpu.dtb.stage2_mmu.stage2_tlb.domain_faults            0                       # Number of TLB faults due to domain restrictions
system.cpu.dtb.stage2_mmu.stage2_tlb.flush_entries            0                       # Number of entries that have been flushed from TLB
system.cpu.dtb.stage2_mmu.stage2_tlb.flush_tlb            0                       # Number of times complete TLB was flushed
system.cpu.dtb.stage2_mmu.stage2_tlb.flush_tlb_asid            0                       # Number of times TLB was flushed by ASID
system.cpu.dtb.stage2_mmu.stage2_tlb.flush_tlb_mva            0                       # Number of times TLB was flushed by MVA
system.cpu.dtb.stage2_mmu.stage2_tlb.flush_tlb_mva_asid            0                       # Number of times TLB was flushed by MVA & ASID
system.cpu.dtb.stage2_mmu.stage2_tlb.hits            0                       # DTB hits
system.cpu.dtb.stage2_mmu.stage2_tlb.inst_accesses            0                       # ITB inst accesses
system.cpu.dtb.stage2_mmu.stage2_tlb.inst_hits            0                       # ITB inst hits
system.cpu.dtb.stage2_mmu.stage2_tlb.inst_misses            0                       # ITB inst misses
system.cpu.dtb.stage2_mmu.stage2_tlb.misses            0                       # DTB misses
system.cpu.dtb.stage2_mmu.stage2_tlb.perms_faults            0                       # Number of TLB faults due to permissions restrictions
system.cpu.dtb.stage2_mmu.stage2_tlb.prefetch_faults            0                       # Number of TLB faults due to prefetch
system.cpu.dtb.stage2_mmu.stage2_tlb.read_accesses            0                       # DTB read accesses
system.cpu.dtb.stage2_mmu.stage2_tlb.read_hits            0                       # DTB read hits
system.cpu.dtb.stage2_mmu.stage2_tlb.read_misses            0                       # DTB read misses
system.cpu.dtb.stage2_mmu.stage2_tlb.walker.walkRequestOrigin_Requested::Data            0                       # Table walker requests started/completed, data/inst
system.cpu.dtb.stage2_mmu.stage2_tlb.walker.walkRequestOrigin_Requested::Inst            0                       # Table walker requests started/completed, data/inst
system.cpu.dtb.stage2_mmu.stage2_tlb.walker.walkRequestOrigin_Requested::total            0                       # Table walker requests started/completed, data/inst
system.cpu.dtb.stage2_mmu.stage2_tlb.walker.walkRequestOrigin_Completed::Data            0                       # Table walker requests started/completed, data/inst
system.cpu.dtb.stage2_mmu.stage2_tlb.walker.walkRequestOrigin_Completed::Inst            0                       # Table walker requests started/completed, data/inst
system.cpu.dtb.stage2_mmu.stage2_tlb.walker.walkRequestOrigin_Completed::total            0                       # Table walker requests started/completed, data/inst
system.cpu.dtb.stage2_mmu.stage2_tlb.walker.walkRequestOrigin::total            0                       # Table walker requests started/completed, data/inst
system.cpu.dtb.stage2_mmu.stage2_tlb.walker.walks            0                       # Table walker walks requested
system.cpu.dtb.stage2_mmu.stage2_tlb.write_accesses            0                       # DTB write accesses
system.cpu.dtb.stage2_mmu.stage2_tlb.write_hits            0                       # DTB write hits
system.cpu.dtb.stage2_mmu.stage2_tlb.write_misses            0                       # DTB write misses
system.cpu.dtb.walker.walkRequestOrigin_Requested::Data            0                       # Table walker requests started/completed, data/inst
system.cpu.dtb.walker.walkRequestOrigin_Requested::Inst            0                       # Table walker requests started/completed, data/inst
system.cpu.dtb.walker.walkRequestOrigin_Requested::total            0                       # Table walker requests started/completed, data/inst
system.cpu.dtb.walker.walkRequestOrigin_Completed::Data            0                       # Table walker requests started/completed, data/inst
system.cpu.dtb.walker.walkRequestOrigin_Completed::Inst            0                       # Table walker requests started/completed, data/inst
system.cpu.dtb.walker.walkRequestOrigin_Completed::total            0                       # Table walker requests started/completed, data/inst
system.cpu.dtb.walker.walkRequestOrigin::total            0                       # Table walker requests started/completed, data/inst
system.cpu.dtb.walker.walks                         0                       # Table walker walks requested
system.cpu.dtb.write_accesses                       0                       # DTB write accesses
system.cpu.dtb.write_hits                           0                       # DTB write hits
system.cpu.dtb.write_misses                         0                       # DTB write misses
system.cpu.fetch.Branches                      919661                       # Number of branches that fetch encountered
system.cpu.fetch.CacheLines                    601343                       # Number of cache lines fetched
system.cpu.fetch.Cycles                        950129                       # Number of cycles fetch has run and was not squashing or blocked
system.cpu.fetch.IcacheSquashes                 36556                       # Number of outstanding Icache misses that were squashed
system.cpu.fetch.IcacheWaitRetryStallCycles           68                       # Number of stall cycles due to full MSHR
system.cpu.fetch.Insts                        5076454                       # Number of instructions fetch has processed
system.cpu.fetch.MiscStallCycles                    4                       # Number of cycles fetch has spent waiting on interrupts, or bad addresses, or out of MSHRs
system.cpu.fetch.SquashCycles                  252564                       # Number of cycles fetch has spent squashing
system.cpu.fetch.branchRate                  0.498205                       # Number of branch fetches per cycle
system.cpu.fetch.icacheStallCycles             698794                       # Number of cycles fetch is stalled on an Icache miss
system.cpu.fetch.predictedBranches             220461                       # Number of branches that fetch has predicted taken
system.cpu.fetch.rate                        2.750050                       # Number of inst fetches per cycle
system.cpu.fetch.rateDist::samples            1775277                       # Number of instructions fetched each cycle (Total)
system.cpu.fetch.rateDist::mean              2.971621                       # Number of instructions fetched each cycle (Total)
system.cpu.fetch.rateDist::stdev             3.448336                       # Number of instructions fetched each cycle (Total)
system.cpu.fetch.rateDist::underflows               0      0.00%      0.00% # Number of instructions fetched each cycle (Total)
system.cpu.fetch.rateDist::0                   861510     48.53%     48.53% # Number of instructions fetched each cycle (Total)
system.cpu.fetch.rateDist::1                    46072      2.60%     51.12% # Number of instructions fetched each cycle (Total)
system.cpu.fetch.rateDist::2                   143160      8.06%     59.19% # Number of instructions fetched each cycle (Total)
system.cpu.fetch.rateDist::3                    70649      3.98%     63.17% # Number of instructions fetched each cycle (Total)
system.cpu.fetch.rateDist::4                    73171      4.12%     67.29% # Number of instructions fetched each cycle (Total)
system.cpu.fetch.rateDist::5                    38988      2.20%     69.48% # Number of instructions fetched each cycle (Total)
system.cpu.fetch.rateDist::6                    35448      2.00%     71.48% # Number of instructions fetched each cycle (Total)
system.cpu.fetch.rateDist::7                    19432      1.09%     72.58% # Number of instructions fetched each cycle (Total)
system.cpu.fetch.rateDist::8                   486847     27.42%    100.00% # Number of instructions fetched each cycle (Total)
system.cpu.fetch.rateDist::overflows                0      0.00%    100.00% # Number of instructions fetched each cycle (Total)
system.cpu.fetch.rateDist::min_value                0                       # Number of instructions fetched each cycle (Total)
system.cpu.fetch.rateDist::max_value                8                       # Number of instructions fetched each cycle (Total)
system.cpu.fetch.rateDist::total              1775277                       # Number of instructions fetched each cycle (Total)
system.cpu.idleCycles                           70673                       # Total number of cycles that the CPU has spent unscheduled due to idling
system.cpu.iew.branchMispredicts               197508                       # Number of branch mispredicts detected at execute
system.cpu.iew.exec_branches                   560772                       # Number of branches executed
system.cpu.iew.exec_nop                         42558                       # number of nop insts executed
system.cpu.iew.exec_rate                     1.477940                       # Inst execution rate
system.cpu.iew.exec_refs                       427201                       # number of memory reference insts executed
system.cpu.iew.exec_stores                     140233                       # Number of stores executed
system.cpu.iew.exec_swp                             0                       # number of swp insts executed
system.cpu.iew.iewBlockCycles                  266611                       # Number of cycles IEW is blocking
system.cpu.iew.iewDispLoadInsts                406063                       # Number of dispatched load instructions
system.cpu.iew.iewDispNonSpecInsts                 26                       # Number of dispatched non-speculative instructions
system.cpu.iew.iewDispSquashedInsts              1873                       # Number of squashed instructions skipped by dispatch
system.cpu.iew.iewDispStoreInsts               197347                       # Number of dispatched store instructions
system.cpu.iew.iewDispatchedInsts             3507767                       # Number of instructions dispatched to IQ
system.cpu.iew.iewExecLoadInsts                286968                       # Number of load instructions executed
system.cpu.iew.iewExecSquashedInsts            246492                       # Number of squashed instructions skipped in execute
system.cpu.iew.iewExecutedInsts               2728203                       # Number of executed instructions
system.cpu.iew.iewIQFullEvents                     97                       # Number of times the IQ has become full, causing a stall
system.cpu.iew.iewIdleCycles                        0                       # Number of cycles IEW is idle
system.cpu.iew.iewLSQFullEvents                  2748                       # Number of times the LSQ has become full, causing a stall
system.cpu.iew.iewSquashCycles                 125615                       # Number of cycles IEW is squashing
system.cpu.iew.iewUnblockCycles                  2892                       # Number of cycles IEW is unblocking
system.cpu.iew.lsq.thread0.blockedLoads             0                       # Number of blocked loads due to partial load-store forwarding
system.cpu.iew.lsq.thread0.cacheBlocked           475                       # Number of times an access to memory failed due to the cache being blocked
system.cpu.iew.lsq.thread0.forwLoads              446                       # Number of loads that had data forwarded from stores
system.cpu.iew.lsq.thread0.ignoredResponses           29                       # Number of memory responses ignored because the instruction is squashed
system.cpu.iew.lsq.thread0.invAddrLoads             0                       # Number of loads ignored due to an invalid address
system.cpu.iew.lsq.thread0.invAddrSwpfs             0                       # Number of software prefetches ignored due to an invalid address
system.cpu.iew.lsq.thread0.memOrderViolation           75                       # Number of memory ordering violations
system.cpu.iew.lsq.thread0.rescheduledLoads          404                       # Number of loads that were rescheduled
system.cpu.iew.lsq.thread0.squashedLoads       250952                       # Number of loads squashed
system.cpu.iew.lsq.thread0.squashedStores       159240                       # Number of stores squashed
system.cpu.iew.memOrderViolationEvents             75                       # Number of memory order violations
system.cpu.iew.predictedNotTakenIncorrect       180166                       # Number of branches that were predicted not taken incorrectly
system.cpu.iew.predictedTakenIncorrect          17342                       # Number of branches that were predicted taken incorrectly
system.cpu.iew.wb_consumers                   2629690                       # num instructions consuming a value
system.cpu.iew.wb_count                       2643861                       # cumulative count of insts written-back
system.cpu.iew.wb_fanout                     0.575769                       # average fanout of values written-back
system.cpu.iew.wb_producers                   1514093                       # num instructions producing a value
system.cpu.iew.wb_rate                       1.432250                       # insts written-back per cycle
system.cpu.iew.wb_sent                        2683576                       # cumulative count of insts sent to commit
system.cpu.int_regfile_reads                  2518262                       # number of integer regfile reads
system.cpu.int_regfile_writes                 1961563                       # number of integer regfile writes
system.cpu.ipc                               0.541729                       # IPC: Instructions Per Cycle
system.cpu.ipc_total                         0.541729                       # IPC: Total IPC of All Threads
system.cpu.iq.FU_type_0::No_OpClass                10      0.00%      0.00% # Type of FU issued
system.cpu.iq.FU_type_0::IntAlu               2440759     82.05%     82.05% # Type of FU issued
system.cpu.iq.FU_type_0::IntMult                  349      0.01%     82.06% # Type of FU issued
system.cpu.iq.FU_type_0::IntDiv                   775      0.03%     82.09% # Type of FU issued
system.cpu.iq.FU_type_0::FloatAdd                   0      0.00%     82.09% # Type of FU issued
system.cpu.iq.FU_type_0::FloatCmp                   0      0.00%     82.09% # Type of FU issued
system.cpu.iq.FU_type_0::FloatCvt                   0      0.00%     82.09% # Type of FU issued
system.cpu.iq.FU_type_0::FloatMult                  0      0.00%     82.09% # Type of FU issued
system.cpu.iq.FU_type_0::FloatMultAcc               0      0.00%     82.09% # Type of FU issued
system.cpu.iq.FU_type_0::FloatDiv                   0      0.00%     82.09% # Type of FU issued
system.cpu.iq.FU_type_0::FloatMisc                  0      0.00%     82.09% # Type of FU issued
system.cpu.iq.FU_type_0::FloatSqrt                  0      0.00%     82.09% # Type of FU issued
system.cpu.iq.FU_type_0::SimdAdd                   38      0.00%     82.09% # Type of FU issued
system.cpu.iq.FU_type_0::SimdAddAcc                 0      0.00%     82.09% # Type of FU issued
system.cpu.iq.FU_type_0::SimdAlu                   44      0.00%     82.09% # Type of FU issued
system.cpu.iq.FU_type_0::SimdCmp                   40      0.00%     82.09% # Type of FU issued
system.cpu.iq.FU_type_0::SimdCvt                    0      0.00%     82.09% # Type of FU issued
system.cpu.iq.FU_type_0::SimdMisc                  81      0.00%     82.10% # Type of FU issued
system.cpu.iq.FU_type_0::SimdMult                   0      0.00%     82.10% # Type of FU issued
system.cpu.iq.FU_type_0::SimdMultAcc                0      0.00%     82.10% # Type of FU issued
system.cpu.iq.FU_type_0::SimdShift                  0      0.00%     82.10% # Type of FU issued
system.cpu.iq.FU_type_0::SimdShiftAcc               0      0.00%     82.10% # Type of FU issued
system.cpu.iq.FU_type_0::SimdDiv                    0      0.00%     82.10% # Type of FU issued
system.cpu.iq.FU_type_0::SimdSqrt                   0      0.00%     82.10% # Type of FU issued
system.cpu.iq.FU_type_0::SimdFloatAdd               0      0.00%     82.10% # Type of FU issued
system.cpu.iq.FU_type_0::SimdFloatAlu               0      0.00%     82.10% # Type of FU issued
system.cpu.iq.FU_type_0::SimdFloatCmp               0      0.00%     82.10% # Type of FU issued
system.cpu.iq.FU_type_0::SimdFloatCvt               0      0.00%     82.10% # Type of FU issued
system.cpu.iq.FU_type_0::SimdFloatDiv               0      0.00%     82.10% # Type of FU issued
system.cpu.iq.FU_type_0::SimdFloatMisc              0      0.00%     82.10% # Type of FU issued
system.cpu.iq.FU_type_0::SimdFloatMult              0      0.00%     82.10% # Type of FU issued
system.cpu.iq.FU_type_0::SimdFloatMultAcc            0      0.00%     82.10% # Type of FU issued
system.cpu.iq.FU_type_0::SimdFloatSqrt              0      0.00%     82.10% # Type of FU issued
system.cpu.iq.FU_type_0::SimdReduceAdd              0      0.00%     82.10% # Type of FU issued
system.cpu.iq.FU_type_0::SimdReduceAlu              0      0.00%     82.10% # Type of FU issued
system.cpu.iq.FU_type_0::SimdReduceCmp              0      0.00%     82.10% # Type of FU issued
system.cpu.iq.FU_type_0::SimdFloatReduceAdd            0      0.00%     82.10% # Type of FU issued
system.cpu.iq.FU_type_0::SimdFloatReduceCmp            0      0.00%     82.10% # Type of FU issued
system.cpu.iq.FU_type_0::SimdAes                    0      0.00%     82.10% # Type of FU issued
system.cpu.iq.FU_type_0::SimdAesMix                 0      0.00%     82.10% # Type of FU issued
system.cpu.iq.FU_type_0::SimdSha1Hash               0      0.00%     82.10% # Type of FU issued
system.cpu.iq.FU_type_0::SimdSha1Hash2              0      0.00%     82.10% # Type of FU issued
system.cpu.iq.FU_type_0::SimdSha256Hash             0      0.00%     82.10% # Type of FU issued
system.cpu.iq.FU_type_0::SimdSha256Hash2            0      0.00%     82.10% # Type of FU issued
system.cpu.iq.FU_type_0::SimdShaSigma2              0      0.00%     82.10% # Type of FU issued
system.cpu.iq.FU_type_0::SimdShaSigma3              0      0.00%     82.10% # Type of FU issued
system.cpu.iq.FU_type_0::SimdPredAlu                0      0.00%     82.10% # Type of FU issued
system.cpu.iq.FU_type_0::MemRead               348461     11.71%     93.81% # Type of FU issued
system.cpu.iq.FU_type_0::MemWrite              184143      6.19%    100.00% # Type of FU issued
system.cpu.iq.FU_type_0::FloatMemRead               0      0.00%    100.00% # Type of FU issued
system.cpu.iq.FU_type_0::FloatMemWrite              0      0.00%    100.00% # Type of FU issued
system.cpu.iq.FU_type_0::IprAccess                  0      0.00%    100.00% # Type of FU issued
system.cpu.iq.FU_type_0::InstPrefetch               0      0.00%    100.00% # Type of FU issued
system.cpu.iq.FU_type_0::total                2974700                       # Type of FU issued
system.cpu.iq.fp_alu_accesses                       0                       # Number of floating point alu accesses
system.cpu.iq.fp_inst_queue_reads                   0                       # Number of floating instruction queue reads
system.cpu.iq.fp_inst_queue_wakeup_accesses            0                       # Number of floating instruction queue wakeup accesses
system.cpu.iq.fp_inst_queue_writes                  0                       # Number of floating instruction queue writes
system.cpu.iq.fu_busy_cnt                       65423                       # FU busy when requested
system.cpu.iq.fu_busy_rate                   0.021993                       # FU busy rate (busy events/executed inst)
system.cpu.iq.fu_full::No_OpClass                   0      0.00%      0.00% # attempts to use FU when none available
system.cpu.iq.fu_full::IntAlu                   63100     96.45%     96.45% # attempts to use FU when none available
system.cpu.iq.fu_full::IntMult                      0      0.00%     96.45% # attempts to use FU when none available
system.cpu.iq.fu_full::IntDiv                     637      0.97%     97.42% # attempts to use FU when none available
system.cpu.iq.fu_full::FloatAdd                     0      0.00%     97.42% # attempts to use FU when none available
system.cpu.iq.fu_full::FloatCmp                     0      0.00%     97.42% # attempts to use FU when none available
system.cpu.iq.fu_full::FloatCvt                     0      0.00%     97.42% # attempts to use FU when none available
system.cpu.iq.fu_full::FloatMult                    0      0.00%     97.42% # attempts to use FU when none available
system.cpu.iq.fu_full::FloatMultAcc                 0      0.00%     97.42% # attempts to use FU when none available
system.cpu.iq.fu_full::FloatDiv                     0      0.00%     97.42% # attempts to use FU when none available
system.cpu.iq.fu_full::FloatMisc                    0      0.00%     97.42% # attempts to use FU when none available
system.cpu.iq.fu_full::FloatSqrt                    0      0.00%     97.42% # attempts to use FU when none available
system.cpu.iq.fu_full::SimdAdd                      0      0.00%     97.42% # attempts to use FU when none available
system.cpu.iq.fu_full::SimdAddAcc                   0      0.00%     97.42% # attempts to use FU when none available
system.cpu.iq.fu_full::SimdAlu                      2      0.00%     97.43% # attempts to use FU when none available
system.cpu.iq.fu_full::SimdCmp                      2      0.00%     97.43% # attempts to use FU when none available
system.cpu.iq.fu_full::SimdCvt                      0      0.00%     97.43% # attempts to use FU when none available
system.cpu.iq.fu_full::SimdMisc                     0      0.00%     97.43% # attempts to use FU when none available
system.cpu.iq.fu_full::SimdMult                     0      0.00%     97.43% # attempts to use FU when none available
system.cpu.iq.fu_full::SimdMultAcc                  0      0.00%     97.43% # attempts to use FU when none available
system.cpu.iq.fu_full::SimdShift                    0      0.00%     97.43% # attempts to use FU when none available
system.cpu.iq.fu_full::SimdShiftAcc                 0      0.00%     97.43% # attempts to use FU when none available
system.cpu.iq.fu_full::SimdDiv                      0      0.00%     97.43% # attempts to use FU when none available
system.cpu.iq.fu_full::SimdSqrt                     0      0.00%     97.43% # attempts to use FU when none available
system.cpu.iq.fu_full::SimdFloatAdd                 0      0.00%     97.43% # attempts to use FU when none available
system.cpu.iq.fu_full::SimdFloatAlu                 0      0.00%     97.43% # attempts to use FU when none available
system.cpu.iq.fu_full::SimdFloatCmp                 0      0.00%     97.43% # attempts to use FU when none available
system.cpu.iq.fu_full::SimdFloatCvt                 0      0.00%     97.43% # attempts to use FU when none available
system.cpu.iq.fu_full::SimdFloatDiv                 0      0.00%     97.43% # attempts to use FU when none available
system.cpu.iq.fu_full::SimdFloatMisc                0      0.00%     97.43% # attempts to use FU when none available
system.cpu.iq.fu_full::SimdFloatMult                0      0.00%     97.43% # attempts to use FU when none available
system.cpu.iq.fu_full::SimdFloatMultAcc             0      0.00%     97.43% # attempts to use FU when none available
system.cpu.iq.fu_full::SimdFloatSqrt                0      0.00%     97.43% # attempts to use FU when none available
system.cpu.iq.fu_full::SimdReduceAdd                0      0.00%     97.43% # attempts to use FU when none available
system.cpu.iq.fu_full::SimdReduceAlu                0      0.00%     97.43% # attempts to use FU when none available
system.cpu.iq.fu_full::SimdReduceCmp                0      0.00%     97.43% # attempts to use FU when none available
system.cpu.iq.fu_full::SimdFloatReduceAdd            0      0.00%     97.43% # attempts to use FU when none available
system.cpu.iq.fu_full::SimdFloatReduceCmp            0      0.00%     97.43% # attempts to use FU when none available
system.cpu.iq.fu_full::SimdAes                      0      0.00%     97.43% # attempts to use FU when none available
system.cpu.iq.fu_full::SimdAesMix                   0      0.00%     97.43% # attempts to use FU when none available
system.cpu.iq.fu_full::SimdSha1Hash                 0      0.00%     97.43% # attempts to use FU when none available
system.cpu.iq.fu_full::SimdSha1Hash2                0      0.00%     97.43% # attempts to use FU when none available
system.cpu.iq.fu_full::SimdSha256Hash               0      0.00%     97.43% # attempts to use FU when none available
system.cpu.iq.fu_full::SimdSha256Hash2              0      0.00%     97.43% # attempts to use FU when none available
system.cpu.iq.fu_full::SimdShaSigma2                0      0.00%     97.43% # attempts to use FU when none available
system.cpu.iq.fu_full::SimdShaSigma3                0      0.00%     97.43% # attempts to use FU when none available
system.cpu.iq.fu_full::SimdPredAlu                  0      0.00%     97.43% # attempts to use FU when none available
system.cpu.iq.fu_full::MemRead                    757      1.16%     98.59% # attempts to use FU when none available
system.cpu.iq.fu_full::MemWrite                   925      1.41%    100.00% # attempts to use FU when none available
system.cpu.iq.fu_full::FloatMemRead                 0      0.00%    100.00% # attempts to use FU when none available
system.cpu.iq.fu_full::FloatMemWrite                0      0.00%    100.00% # attempts to use FU when none available
system.cpu.iq.fu_full::IprAccess                    0      0.00%    100.00% # attempts to use FU when none available
system.cpu.iq.fu_full::InstPrefetch                 0      0.00%    100.00% # attempts to use FU when none available
system.cpu.iq.int_alu_accesses                3038589                       # Number of integer alu accesses
system.cpu.iq.int_inst_queue_reads            7801418                       # Number of integer instruction queue reads
system.cpu.iq.int_inst_queue_wakeup_accesses      2642628                       # Number of integer instruction queue wakeup accesses
system.cpu.iq.int_inst_queue_writes           5883329                       # Number of integer instruction queue writes
system.cpu.iq.iqInstsAdded                    3465183                       # Number of instructions added to the IQ (excludes non-spec)
system.cpu.iq.iqInstsIssued                   2974700                       # Number of instructions issued
system.cpu.iq.iqNonSpecInstsAdded                  26                       # Number of non-speculative instructions added to the IQ
system.cpu.iq.iqSquashedInstsExamined         2420343                       # Number of squashed instructions iterated over during squash; mainly for profiling
system.cpu.iq.iqSquashedInstsIssued             14398                       # Number of squashed instructions issued
system.cpu.iq.iqSquashedNonSpecRemoved              4                       # Number of squashed non-spec instructions that were removed
system.cpu.iq.iqSquashedOperandsExamined      1185525                       # Number of squashed operands that are examined and possibly removed from graph
system.cpu.iq.issued_per_cycle::samples       1775277                       # Number of insts issued each cycle
system.cpu.iq.issued_per_cycle::mean         1.675626                       # Number of insts issued each cycle
system.cpu.iq.issued_per_cycle::stdev        2.362183                       # Number of insts issued each cycle
system.cpu.iq.issued_per_cycle::underflows            0      0.00%      0.00% # Number of insts issued each cycle
system.cpu.iq.issued_per_cycle::0              996220     56.12%     56.12% # Number of insts issued each cycle
system.cpu.iq.issued_per_cycle::1              148603      8.37%     64.49% # Number of insts issued each cycle
system.cpu.iq.issued_per_cycle::2              124545      7.02%     71.50% # Number of insts issued each cycle
system.cpu.iq.issued_per_cycle::3               82636      4.65%     76.16% # Number of insts issued each cycle
system.cpu.iq.issued_per_cycle::4              127225      7.17%     83.32% # Number of insts issued each cycle
system.cpu.iq.issued_per_cycle::5               92270      5.20%     88.52% # Number of insts issued each cycle
system.cpu.iq.issued_per_cycle::6               93167      5.25%     93.77% # Number of insts issued each cycle
system.cpu.iq.issued_per_cycle::7               85041      4.79%     98.56% # Number of insts issued each cycle
system.cpu.iq.issued_per_cycle::8               25570      1.44%    100.00% # Number of insts issued each cycle
system.cpu.iq.issued_per_cycle::overflows            0      0.00%    100.00% # Number of insts issued each cycle
system.cpu.iq.issued_per_cycle::min_value            0                       # Number of insts issued each cycle
system.cpu.iq.issued_per_cycle::max_value            8                       # Number of insts issued each cycle
system.cpu.iq.issued_per_cycle::total         1775277                       # Number of insts issued each cycle
system.cpu.iq.rate                           1.611474                       # Inst issue rate
system.cpu.iq.vec_alu_accesses                   1524                       # Number of vector alu accesses
system.cpu.iq.vec_inst_queue_reads               3075                       # Number of vector instruction queue reads
system.cpu.iq.vec_inst_queue_wakeup_accesses         1233                       # Number of vector instruction queue wakeup accesses
system.cpu.iq.vec_inst_queue_writes              2294                       # Number of vector instruction queue writes
system.cpu.itb.accesses                             0                       # DTB accesses
system.cpu.itb.align_faults                         0                       # Number of TLB faults due to alignment restrictions
system.cpu.itb.domain_faults                        0                       # Number of TLB faults due to domain restrictions
system.cpu.itb.flush_entries                        0                       # Number of entries that have been flushed from TLB
system.cpu.itb.flush_tlb                            0                       # Number of times complete TLB was flushed
system.cpu.itb.flush_tlb_asid                       0                       # Number of times TLB was flushed by ASID
system.cpu.itb.flush_tlb_mva                        0                       # Number of times TLB was flushed by MVA
system.cpu.itb.flush_tlb_mva_asid                   0                       # Number of times TLB was flushed by MVA & ASID
system.cpu.itb.hits                                 0                       # DTB hits
system.cpu.itb.inst_accesses                        0                       # ITB inst accesses
system.cpu.itb.inst_hits                            0                       # ITB inst hits
system.cpu.itb.inst_misses                          0                       # ITB inst misses
system.cpu.itb.misses                               0                       # DTB misses
system.cpu.itb.perms_faults                         0                       # Number of TLB faults due to permissions restrictions
system.cpu.itb.prefetch_faults                      0                       # Number of TLB faults due to prefetch
system.cpu.itb.read_accesses                        0                       # DTB read accesses
system.cpu.itb.read_hits                            0                       # DTB read hits
system.cpu.itb.read_misses                          0                       # DTB read misses
system.cpu.itb.stage2_mmu.stage2_tlb.accesses            0                       # DTB accesses
system.cpu.itb.stage2_mmu.stage2_tlb.align_faults            0                       # Number of TLB faults due to alignment restrictions
system.cpu.itb.stage2_mmu.stage2_tlb.domain_faults            0                       # Number of TLB faults due to domain restrictions
system.cpu.itb.stage2_mmu.stage2_tlb.flush_entries            0                       # Number of entries that have been flushed from TLB
system.cpu.itb.stage2_mmu.stage2_tlb.flush_tlb            0                       # Number of times complete TLB was flushed
system.cpu.itb.stage2_mmu.stage2_tlb.flush_tlb_asid            0                       # Number of times TLB was flushed by ASID
system.cpu.itb.stage2_mmu.stage2_tlb.flush_tlb_mva            0                       # Number of times TLB was flushed by MVA
system.cpu.itb.stage2_mmu.stage2_tlb.flush_tlb_mva_asid            0                       # Number of times TLB was flushed by MVA & ASID
system.cpu.itb.stage2_mmu.stage2_tlb.hits            0                       # DTB hits
system.cpu.itb.stage2_mmu.stage2_tlb.inst_accesses            0                       # ITB inst accesses
system.cpu.itb.stage2_mmu.stage2_tlb.inst_hits            0                       # ITB inst hits
system.cpu.itb.stage2_mmu.stage2_tlb.inst_misses            0                       # ITB inst misses
system.cpu.itb.stage2_mmu.stage2_tlb.misses            0                       # DTB misses
system.cpu.itb.stage2_mmu.stage2_tlb.perms_faults            0                       # Number of TLB faults due to permissions restrictions
system.cpu.itb.stage2_mmu.stage2_tlb.prefetch_faults            0                       # Number of TLB faults due to prefetch
system.cpu.itb.stage2_mmu.stage2_tlb.read_accesses            0                       # DTB read accesses
system.cpu.itb.stage2_mmu.stage2_tlb.read_hits            0                       # DTB read hits
system.cpu.itb.stage2_mmu.stage2_tlb.read_misses            0                       # DTB read misses
system.cpu.itb.stage2_mmu.stage2_tlb.walker.walkRequestOrigin_Requested::Data            0                       # Table walker requests started/completed, data/inst
system.cpu.itb.stage2_mmu.stage2_tlb.walker.walkRequestOrigin_Requested::Inst            0                       # Table walker requests started/completed, data/inst
system.cpu.itb.stage2_mmu.stage2_tlb.walker.walkRequestOrigin_Requested::total            0                       # Table walker requests started/completed, data/inst
system.cpu.itb.stage2_mmu.stage2_tlb.walker.walkRequestOrigin_Completed::Data            0                       # Table walker requests started/completed, data/inst
system.cpu.itb.stage2_mmu.stage2_tlb.walker.walkRequestOrigin_Completed::Inst            0                       # Table walker requests started/completed, data/inst
system.cpu.itb.stage2_mmu.stage2_tlb.walker.walkRequestOrigin_Completed::total            0                       # Table walker requests started/completed, data/inst
system.cpu.itb.stage2_mmu.stage2_tlb.walker.walkRequestOrigin::total            0                       # Table walker requests started/completed, data/inst
system.cpu.itb.stage2_mmu.stage2_tlb.walker.walks            0                       # Table walker walks requested
system.cpu.itb.stage2_mmu.stage2_tlb.write_accesses            0                       # DTB write accesses
system.cpu.itb.stage2_mmu.stage2_tlb.write_hits            0                       # DTB write hits
system.cpu.itb.stage2_mmu.stage2_tlb.write_misses            0                       # DTB write misses
system.cpu.itb.walker.walkRequestOrigin_Requested::Data            0                       # Table walker requests started/completed, data/inst
system.cpu.itb.walker.walkRequestOrigin_Requested::Inst            0                       # Table walker requests started/completed, data/inst
system.cpu.itb.walker.walkRequestOrigin_Requested::total            0                       # Table walker requests started/completed, data/inst
system.cpu.itb.walker.walkRequestOrigin_Completed::Data            0                       # Table walker requests started/completed, data/inst
system.cpu.itb.walker.walkRequestOrigin_Completed::Inst            0                       # Table walker requests started/completed, data/inst
system.cpu.itb.walker.walkRequestOrigin_Completed::total            0                       # Table walker requests started/completed, data/inst
system.cpu.itb.walker.walkRequestOrigin::total            0                       # Table walker requests started/completed, data/inst
system.cpu.itb.walker.walks                         0                       # Table walker walks requested
system.cpu.itb.write_accesses                       0                       # DTB write accesses
system.cpu.itb.write_hits                           0                       # DTB write hits
system.cpu.itb.write_misses                         0                       # DTB write misses
system.cpu.memDep0.conflictingLoads               659                       # Number of conflicting loads.
system.cpu.memDep0.conflictingStores             8947                       # Number of conflicting stores.
system.cpu.memDep0.insertedLoads               406063                       # Number of loads inserted to the mem dependence unit.
system.cpu.memDep0.insertedStores              197347                       # Number of stores inserted to the mem dependence unit.
system.cpu.misc_regfile_reads                 1825275                       # number of misc regfile reads
system.cpu.misc_regfile_writes                     33                       # number of misc regfile writes
system.cpu.numCycles                          1845950                       # number of cpu cycles simulated
system.cpu.numWorkItemsCompleted                    0                       # number of work items this cpu completed
system.cpu.numWorkItemsStarted                      0                       # number of work items this cpu started
system.cpu.rename.BlockCycles                  269248                       # Number of cycles rename is blocking
system.cpu.rename.CommittedMaps               1383845                       # Number of HB maps that are committed
system.cpu.rename.IQFullEvents                   1396                       # Number of times rename has blocked due to IQ full
system.cpu.rename.IdleCycles                   607445                       # Number of cycles rename is idle
system.cpu.rename.LQFullEvents                    125                       # Number of times rename has blocked due to LQ full
system.cpu.rename.ROBFullEvents                   376                       # Number of times rename has blocked due to ROB full
system.cpu.rename.RenameLookups               6710215                       # Number of register rename lookups that rename has made
system.cpu.rename.RenamedInsts                4552485                       # Number of instructions processed by rename
system.cpu.rename.RenamedOperands             5402884                       # Number of destination operands rename has renamed
system.cpu.rename.RunCycles                    744165                       # Number of cycles rename is running
system.cpu.rename.SQFullEvents                  12933                       # Number of times rename has blocked due to SQ full
system.cpu.rename.SquashCycles                 125615                       # Number of cycles rename is squashing
system.cpu.rename.UnblockCycles                 17428                       # Number of cycles rename is unblocking
system.cpu.rename.UndoneMaps                  4018997                       # Number of HB maps that are undone due to squashing
system.cpu.rename.int_rename_lookups          4624521                       # Number of integer rename lookups
system.cpu.rename.serializeStallCycles          11376                       # count of cycles rename stalled for serializing inst
system.cpu.rename.serializingInsts                449                       # count of serializing insts renamed
system.cpu.rename.skidInsts                     26479                       # count of insts added to the skid buffer
system.cpu.rename.tempSerializingInsts             26                       # count of temporary serializing insts renamed
system.cpu.rename.vec_rename_lookups             1744                       # Number of vector rename lookups
system.cpu.rob.rob_reads                      4878976                       # The number of ROB reads
system.cpu.rob.rob_writes                     7419415                       # The number of ROB writes
system.cpu.timesIdled                             800                       # Number of times that the entire CPU went into an idle state and unscheduled itself
system.cpu.vec_regfile_reads                     1299                       # number of vector regfile reads
system.cpu.vec_regfile_writes                     220                       # number of vector regfile writes
system.cpu.workload.numSyscalls                    13                       # Number of system calls
system.membus.snoop_filter.hit_multi_requests            0                       # Number of requests hitting in the snoop filter with multiple (>1) holders of the requested data.
system.membus.snoop_filter.hit_multi_snoops            0                       # Number of snoops hitting in the snoop filter with multiple (>1) holders of the requested data.
system.membus.snoop_filter.hit_single_requests            0                       # Number of requests hitting in the snoop filter with a single holder of the requested data.
system.membus.snoop_filter.hit_single_snoops            0                       # Number of snoops hitting in the snoop filter with a single holder of the requested data.
system.membus.snoop_filter.tot_requests          2298                       # Total number of requests made to the snoop filter.
system.membus.snoop_filter.tot_snoops               0                       # Total number of snoops made to the snoop filter.
system.tol2bus.snoop_filter.hit_multi_requests            3                       # Number of requests hitting in the snoop filter with multiple (>1) holders of the requested data.
system.tol2bus.snoop_filter.hit_multi_snoops            0                       # Number of snoops hitting in the snoop filter with multiple (>1) holders of the requested data.
system.tol2bus.snoop_filter.hit_single_requests         1388                       # Number of requests hitting in the snoop filter with a single holder of the requested data.
system.tol2bus.snoop_filter.hit_single_snoops            0                       # Number of snoops hitting in the snoop filter with a single holder of the requested data.
system.tol2bus.snoop_filter.tot_requests         3988                       # Total number of requests made to the snoop filter.
system.tol2bus.snoop_filter.tot_snoops              0                       # Total number of snoops made to the snoop filter.
system.membus.trans_dist::ReadResp               1435                       # Transaction distribution
system.membus.trans_dist::ReadExReq               489                       # Transaction distribution
system.membus.trans_dist::ReadExResp              489                       # Transaction distribution
system.membus.trans_dist::ReadSharedReq          1435                       # Transaction distribution
system.membus.trans_dist::InvalidateReq           374                       # Transaction distribution
system.membus.pkt_count_system.l2.mem_side::system.mem_ctrls.port         4222                       # Packet count per connected master and slave (bytes)
system.membus.pkt_count::total                   4222                       # Packet count per connected master and slave (bytes)
system.membus.pkt_size_system.l2.mem_side::system.mem_ctrls.port       123136                       # Cumulative packet size per connected master and slave (bytes)
system.membus.pkt_size::total                  123136                       # Cumulative packet size per connected master and slave (bytes)
system.membus.snoops                                0                       # Total snoops (count)
system.membus.snoopTraffic                          0                       # Total snoop traffic (bytes)
system.membus.snoop_fanout::samples              2298                       # Request fanout histogram
system.membus.snoop_fanout::mean                    0                       # Request fanout histogram
system.membus.snoop_fanout::stdev                   0                       # Request fanout histogram
system.membus.snoop_fanout::underflows              0      0.00%      0.00% # Request fanout histogram
system.membus.snoop_fanout::0                    2298    100.00%    100.00% # Request fanout histogram
system.membus.snoop_fanout::1                       0      0.00%    100.00% # Request fanout histogram
system.membus.snoop_fanout::overflows               0      0.00%    100.00% # Request fanout histogram
system.membus.snoop_fanout::min_value               0                       # Request fanout histogram
system.membus.snoop_fanout::max_value               0                       # Request fanout histogram
system.membus.snoop_fanout::total                2298                       # Request fanout histogram
system.membus.reqLayer0.occupancy             2843000                       # Layer occupancy (ticks)
system.membus.reqLayer0.utilization               0.3                       # Layer utilization (%)
system.membus.respLayer1.occupancy           10201750                       # Layer occupancy (ticks)
system.membus.respLayer1.utilization              1.1                       # Layer utilization (%)
system.membus.power_state.pwrStateResidencyTicks::UNDEFINED    922974500                       # Cumulative time (in ticks) in various power states
system.tol2bus.trans_dist::ReadResp              1735                       # Transaction distribution
system.tol2bus.trans_dist::WritebackDirty          194                       # Transaction distribution
system.tol2bus.trans_dist::WritebackClean          935                       # Transaction distribution
system.tol2bus.trans_dist::CleanEvict             259                       # Transaction distribution
system.tol2bus.trans_dist::ReadExReq              491                       # Transaction distribution
system.tol2bus.trans_dist::ReadExResp             491                       # Transaction distribution
system.tol2bus.trans_dist::ReadCleanReq          1191                       # Transaction distribution
system.tol2bus.trans_dist::ReadSharedReq          544                       # Transaction distribution
system.tol2bus.trans_dist::InvalidateReq          374                       # Transaction distribution
system.tol2bus.trans_dist::InvalidateResp          374                       # Transaction distribution
system.tol2bus.pkt_count_system.cpu.icache.mem_side::system.l2.cpu_side         3317                       # Packet count per connected master and slave (bytes)
system.tol2bus.pkt_count_system.cpu.dcache.mem_side::system.l2.cpu_side         3271                       # Packet count per connected master and slave (bytes)
system.tol2bus.pkt_count::total                  6588                       # Packet count per connected master and slave (bytes)
system.tol2bus.pkt_size_system.cpu.icache.mem_side::system.l2.cpu_side       136064                       # Cumulative packet size per connected master and slave (bytes)
system.tol2bus.pkt_size_system.cpu.dcache.mem_side::system.l2.cpu_side        78656                       # Cumulative packet size per connected master and slave (bytes)
system.tol2bus.pkt_size::total                 214720                       # Cumulative packet size per connected master and slave (bytes)
system.tol2bus.snoops                               0                       # Total snoops (count)
system.tol2bus.snoopTraffic                         0                       # Total snoop traffic (bytes)
system.tol2bus.snoop_fanout::samples             2600                       # Request fanout histogram
system.tol2bus.snoop_fanout::mean            0.001154                       # Request fanout histogram
system.tol2bus.snoop_fanout::stdev           0.033955                       # Request fanout histogram
system.tol2bus.snoop_fanout::underflows             0      0.00%      0.00% # Request fanout histogram
system.tol2bus.snoop_fanout::0                   2597     99.88%     99.88% # Request fanout histogram
system.tol2bus.snoop_fanout::1                      3      0.12%    100.00% # Request fanout histogram
system.tol2bus.snoop_fanout::2                      0      0.00%    100.00% # Request fanout histogram
system.tol2bus.snoop_fanout::overflows              0      0.00%    100.00% # Request fanout histogram
system.tol2bus.snoop_fanout::min_value              0                       # Request fanout histogram
system.tol2bus.snoop_fanout::max_value              1                       # Request fanout histogram
system.tol2bus.snoop_fanout::total               2600                       # Request fanout histogram
system.tol2bus.reqLayer0.occupancy            3123000                       # Layer occupancy (ticks)
system.tol2bus.reqLayer0.utilization              0.3                       # Layer utilization (%)
system.tol2bus.respLayer1.occupancy           1739999                       # Layer occupancy (ticks)
system.tol2bus.respLayer1.utilization             0.2                       # Layer utilization (%)
system.tol2bus.respLayer0.occupancy           1786500                       # Layer occupancy (ticks)
system.tol2bus.respLayer0.utilization             0.2                       # Layer utilization (%)
system.tol2bus.power_state.pwrStateResidencyTicks::UNDEFINED    922974500                       # Cumulative time (in ticks) in various power states
system.voltage_domain.voltage                       1                       # Voltage in Volts
system.clk_domain.clock                          1000                       # Clock period in ticks
system.l2.demand_hits::.cpu.inst                  254                       # number of demand (read+write) hits
system.l2.demand_hits::.cpu.data                   48                       # number of demand (read+write) hits
system.l2.demand_hits::total                      302                       # number of demand (read+write) hits
system.l2.overall_hits::.cpu.inst                 254                       # number of overall hits
system.l2.overall_hits::.cpu.data                  48                       # number of overall hits
system.l2.overall_hits::total                     302                       # number of overall hits
system.l2.demand_misses::.cpu.inst                937                       # number of demand (read+write) misses
system.l2.demand_misses::.cpu.data                987                       # number of demand (read+write) misses
system.l2.demand_misses::total                   1924                       # number of demand (read+write) misses
system.l2.overall_misses::.cpu.inst               937                       # number of overall misses
system.l2.overall_misses::.cpu.data               987                       # number of overall misses
system.l2.overall_misses::total                  1924                       # number of overall misses
system.l2.demand_miss_latency::.cpu.inst     73740500                       # number of demand (read+write) miss cycles
system.l2.demand_miss_latency::.cpu.data     79309500                       # number of demand (read+write) miss cycles
system.l2.demand_miss_latency::total        153050000                       # number of demand (read+write) miss cycles
system.l2.overall_miss_latency::.cpu.inst     73740500                       # number of overall miss cycles
system.l2.overall_miss_latency::.cpu.data     79309500                       # number of overall miss cycles
system.l2.overall_miss_latency::total       153050000                       # number of overall miss cycles
system.l2.demand_accesses::.cpu.inst             1191                       # number of demand (read+write) accesses
system.l2.demand_accesses::.cpu.data             1035                       # number of demand (read+write) accesses
system.l2.demand_accesses::total                 2226                       # number of demand (read+write) accesses
system.l2.overall_accesses::.cpu.inst            1191                       # number of overall (read+write) accesses
system.l2.overall_accesses::.cpu.data            1035                       # number of overall (read+write) accesses
system.l2.overall_accesses::total                2226                       # number of overall (read+write) accesses
system.l2.demand_miss_rate::.cpu.inst        0.786734                       # miss rate for demand accesses
system.l2.demand_miss_rate::.cpu.data        0.953623                       # miss rate for demand accesses
system.l2.demand_miss_rate::total            0.864331                       # miss rate for demand accesses
system.l2.overall_miss_rate::.cpu.inst       0.786734                       # miss rate for overall accesses
system.l2.overall_miss_rate::.cpu.data       0.953623                       # miss rate for overall accesses
system.l2.overall_miss_rate::total           0.864331                       # miss rate for overall accesses
system.l2.demand_avg_miss_latency::.cpu.inst 78698.505870                       # average overall miss latency
system.l2.demand_avg_miss_latency::.cpu.data 80354.103343                       # average overall miss latency
system.l2.demand_avg_miss_latency::total 79547.817048                       # average overall miss latency
system.l2.overall_avg_miss_latency::.cpu.inst 78698.505870                       # average overall miss latency
system.l2.overall_avg_miss_latency::.cpu.data 80354.103343                       # average overall miss latency
system.l2.overall_avg_miss_latency::total 79547.817048                       # average overall miss latency
system.l2.blocked_cycles::no_mshrs                  0                       # number of cycles access was blocked
system.l2.blocked_cycles::no_targets                0                       # number of cycles access was blocked
system.l2.blocked::no_mshrs                         0                       # number of cycles access was blocked
system.l2.blocked::no_targets                       0                       # number of cycles access was blocked
system.l2.avg_blocked_cycles::no_mshrs            nan                       # average number of cycles each access was blocked
system.l2.avg_blocked_cycles::no_targets          nan                       # average number of cycles each access was blocked
system.l2.demand_mshr_misses::.cpu.inst           937                       # number of demand (read+write) MSHR misses
system.l2.demand_mshr_misses::.cpu.data           987                       # number of demand (read+write) MSHR misses
system.l2.demand_mshr_misses::total              1924                       # number of demand (read+write) MSHR misses
system.l2.overall_mshr_misses::.cpu.inst          937                       # number of overall MSHR misses
system.l2.overall_mshr_misses::.cpu.data          987                       # number of overall MSHR misses
system.l2.overall_mshr_misses::total             1924                       # number of overall MSHR misses
system.l2.demand_mshr_miss_latency::.cpu.inst     64370500                       # number of demand (read+write) MSHR miss cycles
system.l2.demand_mshr_miss_latency::.cpu.data     69438003                       # number of demand (read+write) MSHR miss cycles
system.l2.demand_mshr_miss_latency::total    133808503                       # number of demand (read+write) MSHR miss cycles
system.l2.overall_mshr_miss_latency::.cpu.inst     64370500                       # number of overall MSHR miss cycles
system.l2.overall_mshr_miss_latency::.cpu.data     69438003                       # number of overall MSHR miss cycles
system.l2.overall_mshr_miss_latency::total    133808503                       # number of overall MSHR miss cycles
system.l2.demand_mshr_miss_rate::.cpu.inst     0.786734                       # mshr miss rate for demand accesses
system.l2.demand_mshr_miss_rate::.cpu.data     0.953623                       # mshr miss rate for demand accesses
system.l2.demand_mshr_miss_rate::total       0.864331                       # mshr miss rate for demand accesses
system.l2.overall_mshr_miss_rate::.cpu.inst     0.786734                       # mshr miss rate for overall accesses
system.l2.overall_mshr_miss_rate::.cpu.data     0.953623                       # mshr miss rate for overall accesses
system.l2.overall_mshr_miss_rate::total      0.864331                       # mshr miss rate for overall accesses
system.l2.demand_avg_mshr_miss_latency::.cpu.inst 68698.505870                       # average overall mshr miss latency
system.l2.demand_avg_mshr_miss_latency::.cpu.data 70352.586626                       # average overall mshr miss latency
system.l2.demand_avg_mshr_miss_latency::total 69547.038981                       # average overall mshr miss latency
system.l2.overall_avg_mshr_miss_latency::.cpu.inst 68698.505870                       # average overall mshr miss latency
system.l2.overall_avg_mshr_miss_latency::.cpu.data 70352.586626                       # average overall mshr miss latency
system.l2.overall_avg_mshr_miss_latency::total 69547.038981                       # average overall mshr miss latency
system.l2.replacements                              0                       # number of replacements
system.l2.WritebackDirty_hits::.writebacks          194                       # number of WritebackDirty hits
system.l2.WritebackDirty_hits::total              194                       # number of WritebackDirty hits
system.l2.WritebackDirty_accesses::.writebacks          194                       # number of WritebackDirty accesses(hits+misses)
system.l2.WritebackDirty_accesses::total          194                       # number of WritebackDirty accesses(hits+misses)
system.l2.WritebackClean_hits::.writebacks          933                       # number of WritebackClean hits
system.l2.WritebackClean_hits::total              933                       # number of WritebackClean hits
system.l2.WritebackClean_accesses::.writebacks          933                       # number of WritebackClean accesses(hits+misses)
system.l2.WritebackClean_accesses::total          933                       # number of WritebackClean accesses(hits+misses)
system.l2.ReadExReq_hits::.cpu.data                 2                       # number of ReadExReq hits
system.l2.ReadExReq_hits::total                     2                       # number of ReadExReq hits
system.l2.ReadExReq_misses::.cpu.data             489                       # number of ReadExReq misses
system.l2.ReadExReq_misses::total                 489                       # number of ReadExReq misses
system.l2.ReadExReq_miss_latency::.cpu.data     38266500                       # number of ReadExReq miss cycles
system.l2.ReadExReq_miss_latency::total      38266500                       # number of ReadExReq miss cycles
system.l2.ReadExReq_accesses::.cpu.data           491                       # number of ReadExReq accesses(hits+misses)
system.l2.ReadExReq_accesses::total               491                       # number of ReadExReq accesses(hits+misses)
system.l2.ReadExReq_miss_rate::.cpu.data     0.995927                       # miss rate for ReadExReq accesses
system.l2.ReadExReq_miss_rate::total         0.995927                       # miss rate for ReadExReq accesses
system.l2.ReadExReq_avg_miss_latency::.cpu.data 78254.601227                       # average ReadExReq miss latency
system.l2.ReadExReq_avg_miss_latency::total 78254.601227                       # average ReadExReq miss latency
system.l2.ReadExReq_mshr_misses::.cpu.data          489                       # number of ReadExReq MSHR misses
system.l2.ReadExReq_mshr_misses::total            489                       # number of ReadExReq MSHR misses
system.l2.ReadExReq_mshr_miss_latency::.cpu.data     33375003                       # number of ReadExReq MSHR miss cycles
system.l2.ReadExReq_mshr_miss_latency::total     33375003                       # number of ReadExReq MSHR miss cycles
system.l2.ReadExReq_mshr_miss_rate::.cpu.data     0.995927                       # mshr miss rate for ReadExReq accesses
system.l2.ReadExReq_mshr_miss_rate::total     0.995927                       # mshr miss rate for ReadExReq accesses
system.l2.ReadExReq_avg_mshr_miss_latency::.cpu.data 68251.539877                       # average ReadExReq mshr miss latency
system.l2.ReadExReq_avg_mshr_miss_latency::total 68251.539877                       # average ReadExReq mshr miss latency
system.l2.ReadCleanReq_hits::.cpu.inst            254                       # number of ReadCleanReq hits
system.l2.ReadCleanReq_hits::total                254                       # number of ReadCleanReq hits
system.l2.ReadCleanReq_misses::.cpu.inst          937                       # number of ReadCleanReq misses
system.l2.ReadCleanReq_misses::total              937                       # number of ReadCleanReq misses
system.l2.ReadCleanReq_miss_latency::.cpu.inst     73740500                       # number of ReadCleanReq miss cycles
system.l2.ReadCleanReq_miss_latency::total     73740500                       # number of ReadCleanReq miss cycles
system.l2.ReadCleanReq_accesses::.cpu.inst         1191                       # number of ReadCleanReq accesses(hits+misses)
system.l2.ReadCleanReq_accesses::total           1191                       # number of ReadCleanReq accesses(hits+misses)
system.l2.ReadCleanReq_miss_rate::.cpu.inst     0.786734                       # miss rate for ReadCleanReq accesses
system.l2.ReadCleanReq_miss_rate::total      0.786734                       # miss rate for ReadCleanReq accesses
system.l2.ReadCleanReq_avg_miss_latency::.cpu.inst 78698.505870                       # average ReadCleanReq miss latency
system.l2.ReadCleanReq_avg_miss_latency::total 78698.505870                       # average ReadCleanReq miss latency
system.l2.ReadCleanReq_mshr_misses::.cpu.inst          937                       # number of ReadCleanReq MSHR misses
system.l2.ReadCleanReq_mshr_misses::total          937                       # number of ReadCleanReq MSHR misses
system.l2.ReadCleanReq_mshr_miss_latency::.cpu.inst     64370500                       # number of ReadCleanReq MSHR miss cycles
system.l2.ReadCleanReq_mshr_miss_latency::total     64370500                       # number of ReadCleanReq MSHR miss cycles
system.l2.ReadCleanReq_mshr_miss_rate::.cpu.inst     0.786734                       # mshr miss rate for ReadCleanReq accesses
system.l2.ReadCleanReq_mshr_miss_rate::total     0.786734                       # mshr miss rate for ReadCleanReq accesses
system.l2.ReadCleanReq_avg_mshr_miss_latency::.cpu.inst 68698.505870                       # average ReadCleanReq mshr miss latency
system.l2.ReadCleanReq_avg_mshr_miss_latency::total 68698.505870                       # average ReadCleanReq mshr miss latency
[...]
system.cpu.dcache.overall_misses::.cpu.data         4870                       # number of overall misses
system.cpu.dcache.overall_misses::total          4870                       # number of overall misses
system.cpu.dcache.demand_miss_latency::.cpu.data    292359164                       # number of demand (read+write) miss cycles
system.cpu.dcache.demand_miss_latency::total    292359164                       # number of demand (read+write) miss cycles
system.cpu.dcache.overall_miss_latency::.cpu.data    292359164                       # number of overall miss cycles
system.cpu.dcache.overall_miss_latency::total    292359164                       # number of overall miss cycles
system.cpu.dcache.demand_accesses::.cpu.data       323748                       # number of demand (read+write) accesses
system.cpu.dcache.demand_accesses::total       323748                       # number of demand (read+write) accesses
system.cpu.dcache.overall_accesses::.cpu.data       323755                       # number of overall (read+write) accesses
system.cpu.dcache.overall_accesses::total       323755                       # number of overall (read+write) accesses
system.cpu.dcache.demand_miss_rate::.cpu.data     0.015033                       # miss rate for demand accesses
system.cpu.dcache.demand_miss_rate::total     0.015033                       # miss rate for demand accesses
system.cpu.dcache.overall_miss_rate::.cpu.data     0.015042                       # miss rate for overall accesses
system.cpu.dcache.overall_miss_rate::total     0.015042                       # miss rate for overall accesses
system.cpu.dcache.demand_avg_miss_latency::.cpu.data 60069.686460                       # average overall miss latency
system.cpu.dcache.demand_avg_miss_latency::total 60069.686460                       # average overall miss latency
system.cpu.dcache.overall_avg_miss_latency::.cpu.data 60032.682546                       # average overall miss latency
system.cpu.dcache.overall_avg_miss_latency::total 60032.682546                       # average overall miss latency
system.cpu.dcache.blocked_cycles::no_mshrs        13199                       # number of cycles access was blocked
system.cpu.dcache.blocked_cycles::no_targets          242                       # number of cycles access was blocked
system.cpu.dcache.blocked::no_mshrs               542                       # number of cycles access was blocked
system.cpu.dcache.blocked::no_targets               2                       # number of cycles access was blocked
system.cpu.dcache.avg_blocked_cycles::no_mshrs    24.352399                       # average number of cycles each access was blocked
system.cpu.dcache.avg_blocked_cycles::no_targets          121                       # average number of cycles each access was blocked
system.cpu.dcache.writebacks::.writebacks          194                       # number of writebacks
system.cpu.dcache.writebacks::total               194                       # number of writebacks
system.cpu.dcache.demand_mshr_hits::.cpu.data         3462                       # number of demand (read+write) MSHR hits
system.cpu.dcache.demand_mshr_hits::total         3462                       # number of demand (read+write) MSHR hits
system.cpu.dcache.overall_mshr_hits::.cpu.data         3462                       # number of overall MSHR hits
system.cpu.dcache.overall_mshr_hits::total         3462                       # number of overall MSHR hits
system.cpu.dcache.demand_mshr_misses::.cpu.data         1405                       # number of demand (read+write) MSHR misses
system.cpu.dcache.demand_mshr_misses::total         1405                       # number of demand (read+write) MSHR misses
system.cpu.dcache.overall_mshr_misses::.cpu.data         1408                       # number of overall MSHR misses
system.cpu.dcache.overall_mshr_misses::total         1408                       # number of overall MSHR misses
system.cpu.dcache.demand_mshr_miss_latency::.cpu.data     92632210                       # number of demand (read+write) MSHR miss cycles
system.cpu.dcache.demand_mshr_miss_latency::total     92632210                       # number of demand (read+write) MSHR miss cycles
system.cpu.dcache.overall_mshr_miss_latency::.cpu.data     92929710                       # number of overall MSHR miss cycles
system.cpu.dcache.overall_mshr_miss_latency::total     92929710                       # number of overall MSHR miss cycles
system.cpu.dcache.demand_mshr_miss_rate::.cpu.data     0.004340                       # mshr miss rate for demand accesses
system.cpu.dcache.demand_mshr_miss_rate::total     0.004340                       # mshr miss rate for demand accesses
system.cpu.dcache.overall_mshr_miss_rate::.cpu.data     0.004349                       # mshr miss rate for overall accesses
system.cpu.dcache.overall_mshr_miss_rate::total     0.004349                       # mshr miss rate for overall accesses
system.cpu.dcache.demand_avg_mshr_miss_latency::.cpu.data 65930.398577                       # average overall mshr miss latency
system.cpu.dcache.demand_avg_mshr_miss_latency::total 65930.398577                       # average overall mshr miss latency
system.cpu.dcache.overall_avg_mshr_miss_latency::.cpu.data 66001.214489                       # average overall mshr miss latency
system.cpu.dcache.overall_avg_mshr_miss_latency::total 66001.214489                       # average overall mshr miss latency
system.cpu.dcache.replacements                    453                       # number of replacements
system.cpu.dcache.ReadReq_hits::.cpu.data       284258                       # number of ReadReq hits
system.cpu.dcache.ReadReq_hits::total          284258                       # number of ReadReq hits
system.cpu.dcache.ReadReq_misses::.cpu.data         1389                       # number of ReadReq misses
system.cpu.dcache.ReadReq_misses::total          1389                       # number of ReadReq misses
system.cpu.dcache.ReadReq_miss_latency::.cpu.data     92253000                       # number of ReadReq miss cycles
system.cpu.dcache.ReadReq_miss_latency::total     92253000                       # number of ReadReq miss cycles
system.cpu.dcache.ReadReq_accesses::.cpu.data       285647                       # number of ReadReq accesses(hits+misses)
system.cpu.dcache.ReadReq_accesses::total       285647                       # number of ReadReq accesses(hits+misses)
system.cpu.dcache.ReadReq_miss_rate::.cpu.data     0.004863                       # miss rate for ReadReq accesses
system.cpu.dcache.ReadReq_miss_rate::total     0.004863                       # miss rate for ReadReq accesses
system.cpu.dcache.ReadReq_avg_miss_latency::.cpu.data 66416.846652                       # average ReadReq miss latency
system.cpu.dcache.ReadReq_avg_miss_latency::total 66416.846652                       # average ReadReq miss latency
system.cpu.dcache.ReadReq_mshr_hits::.cpu.data          849                       # number of ReadReq MSHR hits
system.cpu.dcache.ReadReq_mshr_hits::total          849                       # number of ReadReq MSHR hits
system.cpu.dcache.ReadReq_mshr_misses::.cpu.data          540                       # number of ReadReq MSHR misses
system.cpu.dcache.ReadReq_mshr_misses::total          540                       # number of ReadReq MSHR misses
system.cpu.dcache.ReadReq_mshr_miss_latency::.cpu.data     41973500                       # number of ReadReq MSHR miss cycles
system.cpu.dcache.ReadReq_mshr_miss_latency::total     41973500                       # number of ReadReq MSHR miss cycles
system.cpu.dcache.ReadReq_mshr_miss_rate::.cpu.data     0.001890                       # mshr miss rate for ReadReq accesses
system.cpu.dcache.ReadReq_mshr_miss_rate::total     0.001890                       # mshr miss rate for ReadReq accesses
system.cpu.dcache.ReadReq_avg_mshr_miss_latency::.cpu.data 77728.703704                       # average ReadReq mshr miss latency
system.cpu.dcache.ReadReq_avg_mshr_miss_latency::total 77728.703704                       # average ReadReq mshr miss latency
system.cpu.dcache.WriteReq_hits::.cpu.data        34623                       # number of WriteReq hits
system.cpu.dcache.WriteReq_hits::total          34623                       # number of WriteReq hits
system.cpu.dcache.WriteReq_misses::.cpu.data         3107                       # number of WriteReq misses
system.cpu.dcache.WriteReq_misses::total         3107                       # number of WriteReq misses
system.cpu.dcache.WriteReq_miss_latency::.cpu.data    188204443                       # number of WriteReq miss cycles
system.cpu.dcache.WriteReq_miss_latency::total    188204443                       # number of WriteReq miss cycles
system.cpu.dcache.WriteReq_accesses::.cpu.data        37730                       # number of WriteReq accesses(hits+misses)
system.cpu.dcache.WriteReq_accesses::total        37730                       # number of WriteReq accesses(hits+misses)
system.cpu.dcache.WriteReq_miss_rate::.cpu.data     0.082348                       # miss rate for WriteReq accesses
system.cpu.dcache.WriteReq_miss_rate::total     0.082348                       # miss rate for WriteReq accesses
system.cpu.dcache.WriteReq_avg_miss_latency::.cpu.data 60574.329900                       # average WriteReq miss latency
system.cpu.dcache.WriteReq_avg_miss_latency::total 60574.329900                       # average WriteReq miss latency
system.cpu.dcache.WriteReq_mshr_hits::.cpu.data         2613                       # number of WriteReq MSHR hits
system.cpu.dcache.WriteReq_mshr_hits::total         2613                       # number of WriteReq MSHR hits
system.cpu.dcache.WriteReq_mshr_misses::.cpu.data          494                       # number of WriteReq MSHR misses
system.cpu.dcache.WriteReq_mshr_misses::total          494                       # number of WriteReq MSHR misses
system.cpu.dcache.WriteReq_mshr_miss_latency::.cpu.data     39127989                       # number of WriteReq MSHR miss cycles
system.cpu.dcache.WriteReq_mshr_miss_latency::total     39127989                       # number of WriteReq MSHR miss cycles
system.cpu.dcache.WriteReq_mshr_miss_rate::.cpu.data     0.013093                       # mshr miss rate for WriteReq accesses
system.cpu.dcache.WriteReq_mshr_miss_rate::total     0.013093                       # mshr miss rate for WriteReq accesses
system.cpu.dcache.WriteReq_avg_mshr_miss_latency::.cpu.data 79206.455466                       # average WriteReq mshr miss latency
system.cpu.dcache.WriteReq_avg_mshr_miss_latency::total 79206.455466                       # average WriteReq mshr miss latency
system.cpu.dcache.SoftPFReq_hits::.cpu.data            4                       # number of SoftPFReq hits
system.cpu.dcache.SoftPFReq_hits::total             4                       # number of SoftPFReq hits
system.cpu.dcache.SoftPFReq_misses::.cpu.data            3                       # number of SoftPFReq misses
system.cpu.dcache.SoftPFReq_misses::total            3                       # number of SoftPFReq misses
system.cpu.dcache.SoftPFReq_accesses::.cpu.data            7                       # number of SoftPFReq accesses(hits+misses)
system.cpu.dcache.SoftPFReq_accesses::total            7                       # number of SoftPFReq accesses(hits+misses)
system.cpu.dcache.SoftPFReq_miss_rate::.cpu.data     0.428571                       # miss rate for SoftPFReq accesses
system.cpu.dcache.SoftPFReq_miss_rate::total     0.428571                       # miss rate for SoftPFReq accesses
system.cpu.dcache.SoftPFReq_mshr_misses::.cpu.data            3                       # number of SoftPFReq MSHR misses
system.cpu.dcache.SoftPFReq_mshr_misses::total            3                       # number of SoftPFReq MSHR misses
system.cpu.dcache.SoftPFReq_mshr_miss_latency::.cpu.data       297500                       # number of SoftPFReq MSHR miss cycles
system.cpu.dcache.SoftPFReq_mshr_miss_latency::total       297500                       # number of SoftPFReq MSHR miss cycles
system.cpu.dcache.SoftPFReq_mshr_miss_rate::.cpu.data     0.428571                       # mshr miss rate for SoftPFReq accesses
system.cpu.dcache.SoftPFReq_mshr_miss_rate::total     0.428571                       # mshr miss rate for SoftPFReq accesses
system.cpu.dcache.SoftPFReq_avg_mshr_miss_latency::.cpu.data 99166.666667                       # average SoftPFReq mshr miss latency
system.cpu.dcache.SoftPFReq_avg_mshr_miss_latency::total 99166.666667                       # average SoftPFReq mshr miss latency
system.cpu.dcache.WriteLineReq_misses::.cpu.data          371                       # number of WriteLineReq misses
system.cpu.dcache.WriteLineReq_misses::total          371                       # number of WriteLineReq misses
system.cpu.dcache.WriteLineReq_miss_latency::.cpu.data     11901721                       # number of WriteLineReq miss cycles
system.cpu.dcache.WriteLineReq_miss_latency::total     11901721                       # number of WriteLineReq miss cycles
system.cpu.dcache.WriteLineReq_accesses::.cpu.data          371                       # number of WriteLineReq accesses(hits+misses)
system.cpu.dcache.WriteLineReq_accesses::total          371                       # number of WriteLineReq accesses(hits+misses)
system.cpu.dcache.WriteLineReq_miss_rate::.cpu.data            1                       # miss rate for WriteLineReq accesses
system.cpu.dcache.WriteLineReq_miss_rate::total            1                       # miss rate for WriteLineReq accesses
system.cpu.dcache.WriteLineReq_avg_miss_latency::.cpu.data 32080.110512                       # average WriteLineReq miss latency
system.cpu.dcache.WriteLineReq_avg_miss_latency::total 32080.110512                       # average WriteLineReq miss latency
system.cpu.dcache.WriteLineReq_mshr_misses::.cpu.data          371                       # number of WriteLineReq MSHR misses
system.cpu.dcache.WriteLineReq_mshr_misses::total          371                       # number of WriteLineReq MSHR misses
system.cpu.dcache.WriteLineReq_mshr_miss_latency::.cpu.data     11530721                       # number of WriteLineReq MSHR miss cycles
system.cpu.dcache.WriteLineReq_mshr_miss_latency::total     11530721                       # number of WriteLineReq MSHR miss cycles
system.cpu.dcache.WriteLineReq_mshr_miss_rate::.cpu.data            1                       # mshr miss rate for WriteLineReq accesses
system.cpu.dcache.WriteLineReq_mshr_miss_rate::total            1                       # mshr miss rate for WriteLineReq accesses
system.cpu.dcache.WriteLineReq_avg_mshr_miss_latency::.cpu.data 31080.110512                       # average WriteLineReq mshr miss latency
system.cpu.dcache.WriteLineReq_avg_mshr_miss_latency::total 31080.110512                       # average WriteLineReq mshr miss latency
system.cpu.dcache.LoadLockedReq_hits::.cpu.data            8                       # number of LoadLockedReq hits
system.cpu.dcache.LoadLockedReq_hits::total            8                       # number of LoadLockedReq hits
system.cpu.dcache.LoadLockedReq_misses::.cpu.data            1                       # number of LoadLockedReq misses
system.cpu.dcache.LoadLockedReq_misses::total            1                       # number of LoadLockedReq misses
system.cpu.dcache.LoadLockedReq_miss_latency::.cpu.data        79500                       # number of LoadLockedReq miss cycles
system.cpu.dcache.LoadLockedReq_miss_latency::total        79500                       # number of LoadLockedReq miss cycles
system.cpu.dcache.LoadLockedReq_accesses::.cpu.data            9                       # number of LoadLockedReq accesses(hits+misses)
system.cpu.dcache.LoadLockedReq_accesses::total            9                       # number of LoadLockedReq accesses(hits+misses)
system.cpu.dcache.LoadLockedReq_miss_rate::.cpu.data     0.111111                       # miss rate for LoadLockedReq accesses
system.cpu.dcache.LoadLockedReq_miss_rate::total     0.111111                       # miss rate for LoadLockedReq accesses
system.cpu.dcache.LoadLockedReq_avg_miss_latency::.cpu.data        79500                       # average LoadLockedReq miss latency
system.cpu.dcache.LoadLockedReq_avg_miss_latency::total        79500                       # average LoadLockedReq miss latency
system.cpu.dcache.LoadLockedReq_mshr_misses::.cpu.data            1                       # number of LoadLockedReq MSHR misses
system.cpu.dcache.LoadLockedReq_mshr_misses::total            1                       # number of LoadLockedReq MSHR misses
system.cpu.dcache.LoadLockedReq_mshr_miss_latency::.cpu.data        78500                       # number of LoadLockedReq MSHR miss cycles
system.cpu.dcache.LoadLockedReq_mshr_miss_latency::total        78500                       # number of LoadLockedReq MSHR miss cycles
system.cpu.dcache.LoadLockedReq_mshr_miss_rate::.cpu.data     0.111111                       # mshr miss rate for LoadLockedReq accesses
system.cpu.dcache.LoadLockedReq_mshr_miss_rate::total     0.111111                       # mshr miss rate for LoadLockedReq accesses
system.cpu.dcache.LoadLockedReq_avg_mshr_miss_latency::.cpu.data        78500                       # average LoadLockedReq mshr miss latency
system.cpu.dcache.LoadLockedReq_avg_mshr_miss_latency::total        78500                       # average LoadLockedReq mshr miss latency
system.cpu.dcache.StoreCondReq_hits::.cpu.data            8                       # number of StoreCondReq hits
system.cpu.dcache.StoreCondReq_hits::total            8                       # number of StoreCondReq hits
system.cpu.dcache.StoreCondReq_accesses::.cpu.data            8                       # number of StoreCondReq accesses(hits+misses)
system.cpu.dcache.StoreCondReq_accesses::total            8                       # number of StoreCondReq accesses(hits+misses)
system.cpu.dcache.power_state.pwrStateResidencyTicks::UNDEFINED    922974500                       # Cumulative time (in ticks) in various power states
system.cpu.dcache.tags.tagsinuse           873.002207                       # Cycle average of tags in use
system.cpu.dcache.tags.total_refs              320310                       # Total number of references to valid blocks.
system.cpu.dcache.tags.sampled_refs              1409                       # Sample count of references to valid blocks.
system.cpu.dcache.tags.avg_refs            227.331441                       # Average number of references to valid blocks.
system.cpu.dcache.tags.warmup_cycle            176500                       # Cycle when the warmup percentage was hit.
system.cpu.dcache.tags.occ_blocks::.cpu.data   873.002207                       # Average occupied blocks per requestor
system.cpu.dcache.tags.occ_percent::.cpu.data     0.852541                       # Average percentage of cache occupancy
system.cpu.dcache.tags.occ_percent::total     0.852541                       # Average percentage of cache occupancy
system.cpu.dcache.tags.occ_task_id_blocks::1024          956                       # Occupied blocks per task id
system.cpu.dcache.tags.age_task_id_blocks_1024::2          956                       # Occupied blocks per task id
system.cpu.dcache.tags.occ_task_id_percent::1024     0.933594                       # Percentage of cache occupancy per task id
system.cpu.dcache.tags.tag_accesses            648953                       # Number of tag accesses
system.cpu.dcache.tags.data_accesses           648953                       # Number of data accesses
system.cpu.dcache.tags.power_state.pwrStateResidencyTicks::UNDEFINED    922974500                       # Cumulative time (in ticks) in various power states
system.cpu.power_state.pwrStateResidencyTicks::ON    922974500                       # Cumulative time (in ticks) in various power states

---------- End Simulation Statistics   ----------
