
---------- Begin Simulation Statistics ----------
final_tick                                 1308752000                       # Number of ticks from beginning of simulation (restored from checkpoints and never reset)
host_inst_rate                                  33835                       # Simulator instruction rate (inst/s)
host_mem_usage                                 867388                       # Number of bytes of host memory used
host_op_rate                                    34754                       # Simulator op (including micro ops) rate (op/s)
host_seconds                                    29.56                       # Real time elapsed on the host
host_tick_rate                               44281420                       # Simulator tick rate (ticks/s)
sim_freq                                 1000000000000                       # Frequency of simulated ticks
sim_insts                                     1000000                       # Number of instructions simulated
sim_ops                                       1027167                       # Number of ops (including micro ops) simulated
sim_seconds                                  0.001309                       # Number of seconds simulated
sim_ticks                                  1308752000                       # Number of ticks simulated
system.cpu.branchPred.BTBCorrect                    0                       # Number of correct BTB predictions (this stat may not work properly.
system.cpu.branchPred.BTBHitPct             91.333716                       # BTB Hit Percentage
system.cpu.branchPred.BTBHits                  414034                       # Number of BTB hits
system.cpu.branchPred.BTBLookups               453320                       # Number of BTB lookups
system.cpu.branchPred.RASInCorrect                 12                       # Number of incorrect RAS predictions.
system.cpu.branchPred.condIncorrect            225116                       # Number of conditional branches incorrect
system.cpu.branchPred.condPredicted           1835242                       # Number of conditional branches predicted
system.cpu.branchPred.indirectHits               1688                       # Number of indirect target hits.
system.cpu.branchPred.indirectLookups            5218                       # Number of indirect predictor lookups.
system.cpu.branchPred.indirectMisses             3530                       # Number of indirect misses.
system.cpu.branchPred.lookups                 1871967                       # Number of BP lookups
system.cpu.branchPred.usedRAS                   15186                       # Number of times the RAS was used to get a target.
system.cpu.branchPredindirectMispredicted          226                       # Number of mispredicted indirect branches.
system.cpu.cc_regfile_reads                   2099358                       # number of cc regfile reads
system.cpu.cc_regfile_writes                  2115561                       # number of cc regfile writes
system.cpu.commit.amos                              0                       # Number of atomic instructions committed
system.cpu.commit.branchMispredicts            224437                       # The number of times a branch was mispredicted
system.cpu.commit.branches                     247012                       # Number of branches committed
system.cpu.commit.bw_lim_events                  6199                       # number cycles where commit BW limit reached
system.cpu.commit.commitNonSpecStalls             174                       # The number of times commit has been forced to stall to communicate backwards
system.cpu.commit.commitSquashedInsts         3830612                       # The number of squashed insts skipped by commit
system.cpu.commit.committedInsts              1002021                       # Number of instructions committed
system.cpu.commit.committedOps                1029188                       # Number of ops (including micro ops) committed
system.cpu.commit.committed_per_cycle::samples      2039997                       # Number of insts commited each cycle
system.cpu.commit.committed_per_cycle::mean     0.504505                       # Number of insts commited each cycle
system.cpu.commit.committed_per_cycle::stdev     1.003672                       # Number of insts commited each cycle
system.cpu.commit.committed_per_cycle::underflows            0      0.00%      0.00% # Number of insts commited each cycle
system.cpu.commit.committed_per_cycle::0      1556716     76.31%     76.31% # Number of insts commited each cycle
system.cpu.commit.committed_per_cycle::1        23512      1.15%     77.46% # Number of insts commited each cycle
system.cpu.commit.committed_per_cycle::2       431084     21.13%     98.59% # Number of insts commited each cycle
system.cpu.commit.committed_per_cycle::3         9319      0.46%     99.05% # Number of insts commited each cycle
system.cpu.commit.committed_per_cycle::4         6160      0.30%     99.35% # Number of insts commited each cycle
system.cpu.commit.committed_per_cycle::5         2183      0.11%     99.46% # Number of insts commited each cycle
system.cpu.commit.committed_per_cycle::6         3364      0.16%     99.62% # Number of insts commited each cycle
system.cpu.commit.committed_per_cycle::7         1460      0.07%     99.70% # Number of insts commited each cycle
system.cpu.commit.committed_per_cycle::8         6199      0.30%    100.00% # Number of insts commited each cycle
system.cpu.commit.committed_per_cycle::overflows            0      0.00%    100.00% # Number of insts commited each cycle
system.cpu.commit.committed_per_cycle::min_value            0                       # Number of insts commited each cycle
system.cpu.commit.committed_per_cycle::max_value            8                       # Number of insts commited each cycle
system.cpu.commit.committed_per_cycle::total      2039997                       # Number of insts commited each cycle
system.cpu.commit.fp_insts                          0                       # Number of committed floating point instructions.
system.cpu.commit.function_calls                 4620                       # Number of function calls committed.
system.cpu.commit.int_insts                    800491                       # Number of committed integer instructions.
system.cpu.commit.loads                         35378                       # Number of loads committed
system.cpu.commit.membars                         138                       # Number of memory barriers committed
system.cpu.commit.op_class_0::No_OpClass            3      0.00%      0.00% # Class of committed instruction
system.cpu.commit.op_class_0::IntAlu           756593     73.51%     73.51% # Class of committed instruction
system.cpu.commit.op_class_0::IntMult             384      0.04%     73.55% # Class of committed instruction
system.cpu.commit.op_class_0::IntDiv               94      0.01%     73.56% # Class of committed instruction
system.cpu.commit.op_class_0::FloatAdd              8      0.00%     73.56% # Class of committed instruction
system.cpu.commit.op_class_0::FloatCmp              0      0.00%     73.56% # Class of committed instruction
system.cpu.commit.op_class_0::FloatCvt              0      0.00%     73.56% # Class of committed instruction
system.cpu.commit.op_class_0::FloatMult             0      0.00%     73.56% # Class of committed instruction
system.cpu.commit.op_class_0::FloatMultAcc            0      0.00%     73.56% # Class of committed instruction
system.cpu.commit.op_class_0::FloatDiv              0      0.00%     73.56% # Class of committed instruction
system.cpu.commit.op_class_0::FloatMisc            32      0.00%     73.56% # Class of committed instruction
system.cpu.commit.op_class_0::FloatSqrt             0      0.00%     73.56% # Class of committed instruction
system.cpu.commit.op_class_0::SimdAdd              15      0.00%     73.57% # Class of committed instruction
system.cpu.commit.op_class_0::SimdAddAcc            0      0.00%     73.57% # Class of committed instruction
system.cpu.commit.op_class_0::SimdAlu              10      0.00%     73.57% # Class of committed instruction
system.cpu.commit.op_class_0::SimdCmp              12      0.00%     73.57% # Class of committed instruction
system.cpu.commit.op_class_0::SimdCvt               0      0.00%     73.57% # Class of committed instruction
system.cpu.commit.op_class_0::SimdMisc             72      0.01%     73.57% # Class of committed instruction
system.cpu.commit.op_class_0::SimdMult              0      0.00%     73.57% # Class of committed instruction
system.cpu.commit.op_class_0::SimdMultAcc            0      0.00%     73.57% # Class of committed instruction
system.cpu.commit.op_class_0::SimdShift             0      0.00%     73.57% # Class of committed instruction
system.cpu.commit.op_class_0::SimdShiftAcc            0      0.00%     73.57% # Class of committed instruction
system.cpu.commit.op_class_0::SimdDiv               0      0.00%     73.57% # Class of committed instruction
system.cpu.commit.op_class_0::SimdSqrt              0      0.00%     73.57% # Class of committed instruction
system.cpu.commit.op_class_0::SimdFloatAdd            0      0.00%     73.57% # Class of committed instruction
system.cpu.commit.op_class_0::SimdFloatAlu            0      0.00%     73.57% # Class of committed instruction
system.cpu.commit.op_class_0::SimdFloatCmp            0      0.00%     73.57% # Class of committed instruction
system.cpu.commit.op_class_0::SimdFloatCvt            0      0.00%     73.57% # Class of committed instruction
system.cpu.commit.op_class_0::SimdFloatDiv            0      0.00%     73.57% # Class of committed instruction
system.cpu.commit.op_class_0::SimdFloatMisc            0      0.00%     73.57% # Class of committed instruction
system.cpu.commit.op_class_0::SimdFloatMult            0      0.00%     73.57% # Class of committed instruction
system.cpu.commit.op_class_0::SimdFloatMultAcc            0      0.00%     73.57% # Class of committed instruction
system.cpu.commit.op_class_0::SimdFloatSqrt            0      0.00%     73.57% # Class of committed instruction
system.cpu.commit.op_class_0::SimdReduceAdd            0      0.00%     73.57% # Class of committed instruction
system.cpu.commit.op_class_0::SimdReduceAlu            0      0.00%     73.57% # Class of committed instruction
system.cpu.commit.op_class_0::SimdReduceCmp            0      0.00%     73.57% # Class of committed instruction
system.cpu.commit.op_class_0::SimdFloatReduceAdd            0      0.00%     73.57% # Class of committed instruction
system.cpu.commit.op_class_0::SimdFloatReduceCmp            0      0.00%     73.57% # Class of committed instruction
system.cpu.commit.op_class_0::SimdAes               0      0.00%     73.57% # Class of committed instruction
system.cpu.commit.op_class_0::SimdAesMix            0      0.00%     73.57% # Class of committed instruction
system.cpu.commit.op_class_0::SimdSha1Hash            0      0.00%     73.57% # Class of committed instruction
system.cpu.commit.op_class_0::SimdSha1Hash2            0      0.00%     73.57% # Class of committed instruction
system.cpu.commit.op_class_0::SimdSha256Hash            0      0.00%     73.57% # Class of committed instruction
system.cpu.commit.op_class_0::SimdSha256Hash2            0      0.00%     73.57% # Class of committed instruction
system.cpu.commit.op_class_0::SimdShaSigma2            0      0.00%     73.57% # Class of committed instruction
system.cpu.commit.op_class_0::SimdShaSigma3            0      0.00%     73.57% # Class of committed instruction
system.cpu.commit.op_class_0::SimdPredAlu            0      0.00%     73.57% # Class of committed instruction
system.cpu.commit.op_class_0::MemRead           35378      3.44%     77.01% # Class of committed instruction
system.cpu.commit.op_class_0::MemWrite         236587     22.99%    100.00% # Class of committed instruction
system.cpu.commit.op_class_0::FloatMemRead            0      0.00%    100.00% # Class of committed instruction
system.cpu.commit.op_class_0::FloatMemWrite            0      0.00%    100.00% # Class of committed instruction
system.cpu.commit.op_class_0::IprAccess             0      0.00%    100.00% # Class of committed instruction
system.cpu.commit.op_class_0::InstPrefetch            0      0.00%    100.00% # Class of committed instruction
system.cpu.commit.op_class_0::total           1029188                       # Class of committed instruction
system.cpu.commit.refs                         271965                       # Number of memory references committed
system.cpu.commit.swp_count                         0                       # Number of s/w prefetches committed
system.cpu.commit.vec_insts                      2101                       # Number of committed Vector instructions.
system.cpu.committedInsts                     1000000                       # Number of Instructions Simulated
system.cpu.committedOps                       1027167                       # Number of Ops (including micro ops) Simulated
system.cpu.cpi                               2.617508                       # CPI: Cycles Per Instruction
system.cpu.cpi_total                         2.617508                       # CPI: Total CPI of All Threads
system.cpu.decode.BlockedCycles                351807                       # Number of cycles decode is blocked
system.cpu.decode.BranchMispred                   724                       # Number of times decode detected a branch misprediction
system.cpu.decode.BranchResolved               412582                       # Number of times decode resolved a branch
system.cpu.decode.DecodedInsts                7727027                       # Number of instructions handled by decode
system.cpu.decode.IdleCycles                   775299                       # Number of cycles decode is idle
system.cpu.decode.RunCycles                   1161436                       # Number of cycles decode is running
system.cpu.decode.SquashCycles                 224918                       # Number of cycles decode is squashing
system.cpu.decode.SquashedInsts                  2616                       # Number of squashed instructions handled by decode
system.cpu.decode.UnblockCycles                 26732                       # Number of cycles decode is unblocking
system.cpu.dtb.accesses                             0                       # DTB accesses
system.cpu.dtb.align_faults                         0                       # Number of TLB faults due to alignment restrictions
system.cpu.dtb.domain_faults                        0                       # Number of TLB faults due to domain restrictions
system.cpu.dtb.flush_entries                        0                       # Number of entries that have been flushed from TLB
system.cpu.dtb.flush_tlb                            0                       # Number of times complete TLB was flushed
system.cpu.dtb.flush_tlb_asid                       0                       # Number of times TLB was flushed by ASID
system.cpu.dtb.flush_tlb_mva                        0                       # Number of times TLB was flushed by MVA
system.cpu.dtb.flush_tlb_mva_asid                   0                       # Number of times TLB was flushed by MVA & ASID
system.cpu.dtb.hits                                 0                       # DTB hits
system.cpu.dtb.inst_accesses                        0                       # ITB inst accesses
system.cpu.dtb.inst_hits                            0                       # ITB inst hits
system.cpu.dtb.inst_misses                          0                       # ITB inst misses
system.cpu.dtb.misses                               0                       # DTB misses
system.cpu.dtb.perms_faults                         0                       # Number of TLB faults due to permissions restrictions
system.cpu.dtb.prefetch_faults                      0                       # Number of TLB faults due to prefetch
system.cpu.dtb.read_accesses                        0                       # DTB read accesses
system.cpu.dtb.read_hits                            0                       # DTB read hits
system.cpu.dtb.read_misses                          0                       # DTB read misses
system.cpu.dtb.stage2_mmu.stage2_tlb.accesses            0                       # DTB accesses
system.cpu.dtb.stage2_mmu.stage2_tlb.align_faults            0                       # Number of TLB faults due to alignment restrictions
system.cpu.dtb.stage2_mmu.stage2_tlb.domain_faults            0                       # Number of TLB faults due to domain restrictions
system.cpu.dtb.stage2_mmu.stage2_tlb.flush_entries            0                       # Number of entries that have been flushed from TLB
system.cpu.dtb.stage2_mmu.stage2_tlb.flush_tlb            0                       # Number of times complete TLB was flushed
system.cpu.dtb.stage2_mmu.stage2_tlb.flush_tlb_asid            0                       # Number of times TLB was flushed by ASID
system.cpu.dtb.stage2_mmu.stage2_tlb.flush_tlb_mva            0                       # Number of times TLB was flushed by MVA
system.cpu.dtb.stage2_mmu.stage2_tlb.flush_tlb_mva_asid            0                       # Number of times TLB was flushed by MVA & ASID
system.cpu.dtb.stage2_mmu.stage2_tlb.hits            0                       # DTB hits
system.cpu.dtb.stage2_mmu.stage2_tlb.inst_accesses            0                       # ITB inst accesses
system.cpu.dtb.stage2_mmu.stage2_tlb.inst_hits            0                       # ITB inst hits
system.cpu.dtb.stage2_mmu.stage2_tlb.inst_misses            0                       # ITB inst misses
system.cpu.dtb.stage2_mmu.stage2_tlb.misses            0                       # DTB misses
system.cpu.dtb.stage2_mmu.stage2_tlb.perms_faults            0                       # Number of TLB faults due to permissions restrictions
system.cpu.dtb.stage2_mmu.stage2_tlb.prefetch_faults            0                       # Number of TLB faults due to prefetch
system.cpu.dtb.stage2_mmu.stage2_tlb.read_accesses            0                       # DTB read accesses
system.cpu.dtb.stage2_mmu.stage2_tlb.read_hits            0                       # DTB read hits
system.cpu.dtb.stage2_mmu.stage2_tlb.read_misses            0                       # DTB read misses
system.cpu.dtb.stage2_mmu.stage2_tlb.walker.walkRequestOrigin_Requested::Data            0                       # Table walker requests started/completed, data/inst
system.cpu.dtb.stage2_mmu.stage2_tlb.walker.walkRequestOrigin_Requested::Inst            0                       # Table walker requests started/completed, data/inst
system.cpu.dtb.stage2_mmu.stage2_tlb.walker.walkRequestOrigin_Requested::total            0                       # Table walker requests started/completed, data/inst
system.cpu.dtb.stage2_mmu.stage2_tlb.walker.walkRequestOrigin_Completed::Data            0                       # Table walker requests started/completed, data/inst
system.cpu.dtb.stage2_mmu.stage2_tlb.walker.walkRequestOrigin_Completed::Inst            0                       # Table walker requests started/completed, data/inst
system.cpu.dtb.stage2_mmu.stage2_tlb.walker.walkRequestOrigin_Completed::total            0                       # Table walker requests started/completed, data/inst
system.cpu.dtb.stage2_mmu.stage2_tlb.walker.walkRequestOrigin::total            0                       # Table walker requests started/completed, data/inst
system.cpu.dtb.stage2_mmu.stage2_tlb.walker.walks            0                       # Table walker walks requested
system.cpu.dtb.stage2_mmu.stage2_tlb.write_accesses            0                       # DTB write accesses
system.cpu.dtb.stage2_mmu.stage2_tlb.write_hits            0                       # DTB write hits
system.cpu.dtb.stage2_mmu.stage2_tlb.write_misses            0                       # DTB write misses
system.cpu.dtb.walker.walkRequestOrigin_Requested::Data            0                       # Table walker requests started/completed, data/inst
system.cpu.dtb.walker.walkRequestOrigin_Requested::Inst            0                       # Table walker requests started/completed, data/inst
system.cpu.dtb.walker.walkRequestOrigin_Requested::total            0                       # Table walker requests started/completed, data/inst
system.cpu.dtb.walker.walkRequestOrigin_Completed::Data            0                       # Table walker requests started/completed, data/inst
system.cpu.dtb.walker.walkRequestOrigin_Completed::Inst            0                       # Table walker requests started/completed, data/inst
system.cpu.dtb.walker.walkRequestOrigin_Completed::total            0                       # Table walker requests started/completed, data/inst
system.cpu.dtb.walker.walkRequestOrigin::total            0                       # Table walker requests started/completed, data/inst
system.cpu.dtb.walker.walks                         0                       # Table walker walks requested
system.cpu.dtb.write_accesses                       0                       # DTB write accesses
system.cpu.dtb.write_hits                           0                       # DTB write hits
system.cpu.dtb.write_misses                         0                       # DTB write misses
system.cpu.fetch.Branches                     1871967                       # Number of branches that fetch encountered
system.cpu.fetch.CacheLines                    943346                       # Number of cache lines fetched
system.cpu.fetch.Cycles                       1270623                       # Number of cycles fetch has run and was not squashing or blocked
system.cpu.fetch.IcacheSquashes                  8098                       # Number of outstanding Icache misses that were squashed
system.cpu.fetch.IcacheWaitRetryStallCycles           44                       # Number of stall cycles due to full MSHR
system.cpu.fetch.Insts                        7729982                       # Number of instructions fetch has processed
system.cpu.fetch.MiscStallCycles                    5                       # Number of cycles fetch has spent waiting on interrupts, or bad addresses, or out of MSHRs
system.cpu.fetch.SquashCycles                  451194                       # Number of cycles fetch has spent squashing
system.cpu.fetch.branchRate                  0.715171                       # Number of branch fetches per cycle
system.cpu.fetch.icacheStallCycles            1043923                       # Number of cycles fetch is stalled on an Icache miss
system.cpu.fetch.predictedBranches             430908                       # Number of branches that fetch has predicted taken
system.cpu.fetch.rate                        2.953184                       # Number of inst fetches per cycle
system.cpu.fetch.rateDist::samples            2540192                       # Number of instructions fetched each cycle (Total)
system.cpu.fetch.rateDist::mean              3.073289                       # Number of instructions fetched each cycle (Total)
system.cpu.fetch.rateDist::stdev             3.518820                       # Number of instructions fetched each cycle (Total)
system.cpu.fetch.rateDist::underflows               0      0.00%      0.00% # Number of instructions fetched each cycle (Total)
system.cpu.fetch.rateDist::0                  1336582     52.62%     52.62% # Number of instructions fetched each cycle (Total)
system.cpu.fetch.rateDist::1                     6320      0.25%     52.87% # Number of instructions fetched each cycle (Total)
system.cpu.fetch.rateDist::2                    13844      0.54%     53.41% # Number of instructions fetched each cycle (Total)
system.cpu.fetch.rateDist::3                     8277      0.33%     53.74% # Number of instructions fetched each cycle (Total)
system.cpu.fetch.rateDist::4                   402760     15.86%     69.59% # Number of instructions fetched each cycle (Total)
system.cpu.fetch.rateDist::5                     9549      0.38%     69.97% # Number of instructions fetched each cycle (Total)
system.cpu.fetch.rateDist::6                     4778      0.19%     70.16% # Number of instructions fetched each cycle (Total)
system.cpu.fetch.rateDist::7                     4205      0.17%     70.32% # Number of instructions fetched each cycle (Total)
system.cpu.fetch.rateDist::8                   753877     29.68%    100.00% # Number of instructions fetched each cycle (Total)
system.cpu.fetch.rateDist::overflows                0      0.00%    100.00% # Number of instructions fetched each cycle (Total)
system.cpu.fetch.rateDist::min_value                0                       # Number of instructions fetched each cycle (Total)
system.cpu.fetch.rateDist::max_value                8                       # Number of instructions fetched each cycle (Total)
system.cpu.fetch.rateDist::total              2540192                       # Number of instructions fetched each cycle (Total)
system.cpu.idleCycles                           77316                       # Total number of cycles that the CPU has spent unscheduled due to idling
system.cpu.iew.branchMispredicts               262219                       # Number of branch mispredicts detected at execute
system.cpu.iew.exec_branches                   727994                       # Number of branches executed
system.cpu.iew.exec_nop                        199509                       # number of nop insts executed
system.cpu.iew.exec_rate                     1.164981                       # Inst execution rate
system.cpu.iew.exec_refs                       358068                       # number of memory reference insts executed
system.cpu.iew.exec_stores                     255030                       # Number of stores executed
system.cpu.iew.exec_swp                             0                       # number of swp insts executed
system.cpu.iew.iewBlockCycles                  275495                       # Number of cycles IEW is blocking
system.cpu.iew.iewDispLoadInsts                163123                       # Number of dispatched load instructions
system.cpu.iew.iewDispNonSpecInsts                377                       # Number of dispatched non-speculative instructions
system.cpu.iew.iewDispSquashedInsts              2389                       # Number of squashed instructions skipped by dispatch
system.cpu.iew.iewDispStoreInsts               275967                       # Number of dispatched store instructions
system.cpu.iew.iewDispatchedInsts             4881961                       # Number of instructions dispatched to IQ
system.cpu.iew.iewExecLoadInsts                103038                       # Number of load instructions executed
system.cpu.iew.iewExecSquashedInsts            889525                       # Number of squashed instructions skipped in execute
system.cpu.iew.iewExecutedInsts               3049348                       # Number of executed instructions
system.cpu.iew.iewIQFullEvents                      4                       # Number of times the IQ has become full, causing a stall
system.cpu.iew.iewIdleCycles                        0                       # Number of cycles IEW is idle
system.cpu.iew.iewLSQFullEvents                   731                       # Number of times the LSQ has become full, causing a stall
system.cpu.iew.iewSquashCycles                 224918                       # Number of cycles IEW is squashing
system.cpu.iew.iewUnblockCycles                   724                       # Number of cycles IEW is unblocking
system.cpu.iew.lsq.thread0.blockedLoads             0                       # Number of blocked loads due to partial load-store forwarding
system.cpu.iew.lsq.thread0.cacheBlocked           196                       # Number of times an access to memory failed due to the cache being blocked
system.cpu.iew.lsq.thread0.forwLoads             1569                       # Number of loads that had data forwarded from stores
system.cpu.iew.lsq.thread0.ignoredResponses            7                       # Number of memory responses ignored because the instruction is squashed
system.cpu.iew.lsq.thread0.invAddrLoads             0                       # Number of loads ignored due to an invalid address
system.cpu.iew.lsq.thread0.invAddrSwpfs             0                       # Number of software prefetches ignored due to an invalid address
system.cpu.iew.lsq.thread0.memOrderViolation           26                       # Number of memory ordering violations
system.cpu.iew.lsq.thread0.rescheduledLoads         1790                       # Number of loads that were rescheduled
system.cpu.iew.lsq.thread0.squashedLoads       127745                       # Number of loads squashed
system.cpu.iew.lsq.thread0.squashedStores        39380                       # Number of stores squashed
system.cpu.iew.memOrderViolationEvents             26                       # Number of memory order violations
system.cpu.iew.predictedNotTakenIncorrect       260698                       # Number of branches that were predicted not taken incorrectly
system.cpu.iew.predictedTakenIncorrect           1521                       # Number of branches that were predicted taken incorrectly
system.cpu.iew.wb_consumers                   2951503                       # num instructions consuming a value
system.cpu.iew.wb_count                       2993430                       # cumulative count of insts written-back
system.cpu.iew.wb_fanout                     0.499601                       # average fanout of values written-back
system.cpu.iew.wb_producers                   1474574                       # num instructions producing a value
system.cpu.iew.wb_rate                       1.143618                       # insts written-back per cycle
system.cpu.iew.wb_sent                        3020055                       # cumulative count of insts sent to commit
system.cpu.int_regfile_reads                  3735248                       # number of integer regfile reads
system.cpu.int_regfile_writes                 2051385                       # number of integer regfile writes
system.cpu.ipc                               0.382043                       # IPC: Instructions Per Cycle
system.cpu.ipc_total                         0.382043                       # IPC: Total IPC of All Threads
system.cpu.iq.FU_type_0::No_OpClass                 3      0.00%      0.00% # Type of FU issued
system.cpu.iq.FU_type_0::IntAlu               3519457     89.35%     89.35% # Type of FU issued
system.cpu.iq.FU_type_0::IntMult                  429      0.01%     89.36% # Type of FU issued
system.cpu.iq.FU_type_0::IntDiv                   138      0.00%     89.37% # Type of FU issued
system.cpu.iq.FU_type_0::FloatAdd                  16      0.00%     89.37% # Type of FU issued
system.cpu.iq.FU_type_0::FloatCmp                   0      0.00%     89.37% # Type of FU issued
system.cpu.iq.FU_type_0::FloatCvt                   0      0.00%     89.37% # Type of FU issued
system.cpu.iq.FU_type_0::FloatMult                  0      0.00%     89.37% # Type of FU issued
system.cpu.iq.FU_type_0::FloatMultAcc               0      0.00%     89.37% # Type of FU issued
system.cpu.iq.FU_type_0::FloatDiv                   0      0.00%     89.37% # Type of FU issued
system.cpu.iq.FU_type_0::FloatMisc                 65      0.00%     89.37% # Type of FU issued
system.cpu.iq.FU_type_0::FloatSqrt                  0      0.00%     89.37% # Type of FU issued
system.cpu.iq.FU_type_0::SimdAdd                   17      0.00%     89.37% # Type of FU issued
system.cpu.iq.FU_type_0::SimdAddAcc                 0      0.00%     89.37% # Type of FU issued
system.cpu.iq.FU_type_0::SimdAlu                   12      0.00%     89.37% # Type of FU issued
system.cpu.iq.FU_type_0::SimdCmp                   12      0.00%     89.37% # Type of FU issued
system.cpu.iq.FU_type_0::SimdCvt                    0      0.00%     89.37% # Type of FU issued
system.cpu.iq.FU_type_0::SimdMisc                  77      0.00%     89.37% # Type of FU issued
system.cpu.iq.FU_type_0::SimdMult                   0      0.00%     89.37% # Type of FU issued
system.cpu.iq.FU_type_0::SimdMultAcc                0      0.00%     89.37% # Type of FU issued
system.cpu.iq.FU_type_0::SimdShift                  0      0.00%     89.37% # Type of FU issued
system.cpu.iq.FU_type_0::SimdShiftAcc               0      0.00%     89.37% # Type of FU issued
system.cpu.iq.FU_type_0::SimdDiv                    0      0.00%     89.37% # Type of FU issued
system.cpu.iq.FU_type_0::SimdSqrt                   0      0.00%     89.37% # Type of FU issued
system.cpu.iq.FU_type_0::SimdFloatAdd               0      0.00%     89.37% # Type of FU issued
system.cpu.iq.FU_type_0::SimdFloatAlu               0      0.00%     89.37% # Type of FU issued
system.cpu.iq.FU_type_0::SimdFloatCmp               0      0.00%     89.37% # Type of FU issued
system.cpu.iq.FU_type_0::SimdFloatCvt               0      0.00%     89.37% # Type of FU issued
system.cpu.iq.FU_type_0::SimdFloatDiv               0      0.00%     89.37% # Type of FU issued
system.cpu.iq.FU_type_0::SimdFloatMisc              0      0.00%     89.37% # Type of FU issued
system.cpu.iq.FU_type_0::SimdFloatMult              0      0.00%     89.37% # Type of FU issued
system.cpu.iq.FU_type_0::SimdFloatMultAcc            0      0.00%     89.37% # Type of FU issued
system.cpu.iq.FU_type_0::SimdFloatSqrt              0      0.00%     89.37% # Type of FU issued
system.cpu.iq.FU_type_0::SimdReduceAdd              0      0.00%     89.37% # Type of FU issued
system.cpu.iq.FU_type_0::SimdReduceAlu              0      0.00%     89.37% # Type of FU issued
system.cpu.iq.FU_type_0::SimdReduceCmp              0      0.00%     89.37% # Type of FU issued
system.cpu.iq.FU_type_0::SimdFloatReduceAdd            0      0.00%     89.37% # Type of FU issued
system.cpu.iq.FU_type_0::SimdFloatReduceCmp            0      0.00%     89.37% # Type of FU issued
system.cpu.iq.FU_type_0::SimdAes                    0      0.00%     89.37% # Type of FU issued
system.cpu.iq.FU_type_0::SimdAesMix                 0      0.00%     89.37% # Type of FU issued
system.cpu.iq.FU_type_0::SimdSha1Hash               0      0.00%     89.37% # Type of FU issued
system.cpu.iq.FU_type_0::SimdSha1Hash2              0      0.00%     89.37% # Type of FU issued
system.cpu.iq.FU_type_0::SimdSha256Hash             0      0.00%     89.37% # Type of FU issued
system.cpu.iq.FU_type_0::SimdSha256Hash2            0      0.00%     89.37% # Type of FU issued
system.cpu.iq.FU_type_0::SimdShaSigma2              0      0.00%     89.37% # Type of FU issued
system.cpu.iq.FU_type_0::SimdShaSigma3              0      0.00%     89.37% # Type of FU issued
system.cpu.iq.FU_type_0::SimdPredAlu                0      0.00%     89.37% # Type of FU issued
system.cpu.iq.FU_type_0::MemRead               158076      4.01%     93.38% # Type of FU issued
system.cpu.iq.FU_type_0::MemWrite              260572      6.62%    100.00% # Type of FU issued
system.cpu.iq.FU_type_0::FloatMemRead               0      0.00%    100.00% # Type of FU issued
system.cpu.iq.FU_type_0::FloatMemWrite              0      0.00%    100.00% # Type of FU issued
system.cpu.iq.FU_type_0::IprAccess                  0      0.00%    100.00% # Type of FU issued
system.cpu.iq.FU_type_0::InstPrefetch               0      0.00%    100.00% # Type of FU issued
system.cpu.iq.FU_type_0::total                3938874                       # Type of FU issued
system.cpu.iq.fp_alu_accesses                       0                       # Number of floating point alu accesses
system.cpu.iq.fp_inst_queue_reads                   0                       # Number of floating instruction queue reads
system.cpu.iq.fp_inst_queue_wakeup_accesses            0                       # Number of floating instruction queue wakeup accesses
system.cpu.iq.fp_inst_queue_writes                  0                       # Number of floating instruction queue writes
system.cpu.iq.fu_busy_cnt                        5296                       # FU busy when requested
system.cpu.iq.fu_busy_rate                   0.001345                       # FU busy rate (busy events/executed inst)
system.cpu.iq.fu_full::No_OpClass                   0      0.00%      0.00% # attempts to use FU when none available
system.cpu.iq.fu_full::IntAlu                    1561     29.48%     29.48% # attempts to use FU when none available
system.cpu.iq.fu_full::IntMult                      1      0.02%     29.49% # attempts to use FU when none available
system.cpu.iq.fu_full::IntDiv                       0      0.00%     29.49% # attempts to use FU when none available
system.cpu.iq.fu_full::FloatAdd                     0      0.00%     29.49% # attempts to use FU when none available
system.cpu.iq.fu_full::FloatCmp                     0      0.00%     29.49% # attempts to use FU when none available
system.cpu.iq.fu_full::FloatCvt                     0      0.00%     29.49% # attempts to use FU when none available
system.cpu.iq.fu_full::FloatMult                    0      0.00%     29.49% # attempts to use FU when none available
system.cpu.iq.fu_full::FloatMultAcc                 0      0.00%     29.49% # attempts to use FU when none available
system.cpu.iq.fu_full::FloatDiv                     0      0.00%     29.49% # attempts to use FU when none available
system.cpu.iq.fu_full::FloatMisc                    0      0.00%     29.49% # attempts to use FU when none available
system.cpu.iq.fu_full::FloatSqrt                    0      0.00%     29.49% # attempts to use FU when none available
system.cpu.iq.fu_full::SimdAdd                      0      0.00%     29.49% # attempts to use FU when none available
system.cpu.iq.fu_full::SimdAddAcc                   0      0.00%     29.49% # attempts to use FU when none available
system.cpu.iq.fu_full::SimdAlu                      1      0.02%     29.51% # attempts to use FU when none available
system.cpu.iq.fu_full::SimdCmp                      0      0.00%     29.51% # attempts to use FU when none available
system.cpu.iq.fu_full::SimdCvt                      0      0.00%     29.51% # attempts to use FU when none available
system.cpu.iq.fu_full::SimdMisc                     0      0.00%     29.51% # attempts to use FU when none available
system.cpu.iq.fu_full::SimdMult                     0      0.00%     29.51% # attempts to use FU when none available
system.cpu.iq.fu_full::SimdMultAcc                  0      0.00%     29.51% # attempts to use FU when none available
system.cpu.iq.fu_full::SimdShift                    0      0.00%     29.51% # attempts to use FU when none available
system.cpu.iq.fu_full::SimdShiftAcc                 0      0.00%     29.51% # attempts to use FU when none available
system.cpu.iq.fu_full::SimdDiv                      0      0.00%     29.51% # attempts to use FU when none available
system.cpu.iq.fu_full::SimdSqrt                     0      0.00%     29.51% # attempts to use FU when none available
system.cpu.iq.fu_full::SimdFloatAdd                 0      0.00%     29.51% # attempts to use FU when none available
system.cpu.iq.fu_full::SimdFloatAlu                 0      0.00%     29.51% # attempts to use FU when none available
system.cpu.iq.fu_full::SimdFloatCmp                 0      0.00%     29.51% # attempts to use FU when none available
system.cpu.iq.fu_full::SimdFloatCvt                 0      0.00%     29.51% # attempts to use FU when none available
system.cpu.iq.fu_full::SimdFloatDiv                 0      0.00%     29.51% # attempts to use FU when none available
system.cpu.iq.fu_full::SimdFloatMisc                0      0.00%     29.51% # attempts to use FU when none available
system.cpu.iq.fu_full::SimdFloatMult                0      0.00%     29.51% # attempts to use FU when none available
system.cpu.iq.fu_full::SimdFloatMultAcc             0      0.00%     29.51% # attempts to use FU when none available
system.cpu.iq.fu_full::SimdFloatSqrt                0      0.00%     29.51% # attempts to use FU when none available
system.cpu.iq.fu_full::SimdReduceAdd                0      0.00%     29.51% # attempts to use FU when none available
system.cpu.iq.fu_full::SimdReduceAlu                0      0.00%     29.51% # attempts to use FU when none available
system.cpu.iq.fu_full::SimdReduceCmp                0      0.00%     29.51% # attempts to use FU when none available
system.cpu.iq.fu_full::SimdFloatReduceAdd            0      0.00%     29.51% # attempts to use FU when none available
system.cpu.iq.fu_full::SimdFloatReduceCmp            0      0.00%     29.51% # attempts to use FU when none available
system.cpu.iq.fu_full::SimdAes                      0      0.00%     29.51% # attempts to use FU when none available
system.cpu.iq.fu_full::SimdAesMix                   0      0.00%     29.51% # attempts to use FU when none available
system.cpu.iq.fu_full::SimdSha1Hash                 0      0.00%     29.51% # attempts to use FU when none available
system.cpu.iq.fu_full::SimdSha1Hash2                0      0.00%     29.51% # attempts to use FU when none available
system.cpu.iq.fu_full::SimdSha256Hash               0      0.00%     29.51% # attempts to use FU when none available
system.cpu.iq.fu_full::SimdSha256Hash2              0      0.00%     29.51% # attempts to use FU when none available
system.cpu.iq.fu_full::SimdShaSigma2                0      0.00%     29.51% # attempts to use FU when none available
system.cpu.iq.fu_full::SimdShaSigma3                0      0.00%     29.51% # attempts to use FU when none available
system.cpu.iq.fu_full::SimdPredAlu                  0      0.00%     29.51% # attempts to use FU when none available
system.cpu.iq.fu_full::MemRead                   1867     35.25%     64.77% # attempts to use FU when none available
system.cpu.iq.fu_full::MemWrite                  1866     35.23%    100.00% # attempts to use FU when none available
system.cpu.iq.fu_full::FloatMemRead                 0      0.00%    100.00% # attempts to use FU when none available
system.cpu.iq.fu_full::FloatMemWrite                0      0.00%    100.00% # attempts to use FU when none available
system.cpu.iq.fu_full::IprAccess                    0      0.00%    100.00% # attempts to use FU when none available
system.cpu.iq.fu_full::InstPrefetch                 0      0.00%    100.00% # attempts to use FU when none available
system.cpu.iq.int_alu_accesses                3941258                       # Number of integer alu accesses
system.cpu.iq.int_inst_queue_reads           10419077                       # Number of integer instruction queue reads
system.cpu.iq.int_inst_queue_wakeup_accesses      2991054                       # Number of integer instruction queue wakeup accesses
system.cpu.iq.int_inst_queue_writes           8333600                       # Number of integer instruction queue writes
system.cpu.iq.iqInstsAdded                    4682075                       # Number of instructions added to the IQ (excludes non-spec)
system.cpu.iq.iqInstsIssued                   3938874                       # Number of instructions issued
system.cpu.iq.iqNonSpecInstsAdded                 377                       # Number of non-speculative instructions added to the IQ
system.cpu.iq.iqSquashedInstsExamined         3655275                       # Number of squashed instructions iterated over during squash; mainly for profiling
system.cpu.iq.iqSquashedInstsIssued              1855                       # Number of squashed instructions issued
system.cpu.iq.iqSquashedNonSpecRemoved            203                       # Number of squashed non-spec instructions that were removed
system.cpu.iq.iqSquashedOperandsExamined      1953176                       # Number of squashed operands that are examined and possibly removed from graph
system.cpu.iq.issued_per_cycle::samples       2540192                       # Number of insts issued each cycle
system.cpu.iq.issued_per_cycle::mean         1.550621                       # Number of insts issued each cycle
system.cpu.iq.issued_per_cycle::stdev        2.016909                       # Number of insts issued each cycle
system.cpu.iq.issued_per_cycle::underflows            0      0.00%      0.00% # Number of insts issued each cycle
system.cpu.iq.issued_per_cycle::0             1367336     53.83%     53.83% # Number of insts issued each cycle
system.cpu.iq.issued_per_cycle::1              218767      8.61%     62.44% # Number of insts issued each cycle
system.cpu.iq.issued_per_cycle::2              235156      9.26%     71.70% # Number of insts issued each cycle
system.cpu.iq.issued_per_cycle::3               22974      0.90%     72.60% # Number of insts issued each cycle
system.cpu.iq.issued_per_cycle::4              421694     16.60%     89.20% # Number of insts issued each cycle
system.cpu.iq.issued_per_cycle::5              209276      8.24%     97.44% # Number of insts issued each cycle
system.cpu.iq.issued_per_cycle::6                9732      0.38%     97.82% # Number of insts issued each cycle
system.cpu.iq.issued_per_cycle::7               52731      2.08%     99.90% # Number of insts issued each cycle
system.cpu.iq.issued_per_cycle::8                2526      0.10%    100.00% # Number of insts issued each cycle
system.cpu.iq.issued_per_cycle::overflows            0      0.00%    100.00% # Number of insts issued each cycle
system.cpu.iq.issued_per_cycle::min_value            0                       # Number of insts issued each cycle
system.cpu.iq.issued_per_cycle::max_value            8                       # Number of insts issued each cycle
system.cpu.iq.issued_per_cycle::total         2540192                       # Number of insts issued each cycle
system.cpu.iq.rate                           1.504818                       # Inst issue rate
system.cpu.iq.vec_alu_accesses                   2909                       # Number of vector alu accesses
system.cpu.iq.vec_inst_queue_reads               6013                       # Number of vector instruction queue reads
system.cpu.iq.vec_inst_queue_wakeup_accesses         2376                       # Number of vector instruction queue wakeup accesses
system.cpu.iq.vec_inst_queue_writes              4151                       # Number of vector instruction queue writes
system.cpu.itb.accesses                             0                       # DTB accesses
system.cpu.itb.align_faults                         0                       # Number of TLB faults due to alignment restrictions
system.cpu.itb.domain_faults                        0                       # Number of TLB faults due to domain restrictions
system.cpu.itb.flush_entries                        0                       # Number of entries that have been flushed from TLB
system.cpu.itb.flush_tlb                            0                       # Number of times complete TLB was flushed
system.cpu.itb.flush_tlb_asid                       0                       # Number of times TLB was flushed by ASID
system.cpu.itb.flush_tlb_mva                        0                       # Number of times TLB was flushed by MVA
system.cpu.itb.flush_tlb_mva_asid                   0                       # Number of times TLB was flushed by MVA & ASID
system.cpu.itb.hits                                 0                       # DTB hits
system.cpu.itb.inst_accesses                        0                       # ITB inst accesses
system.cpu.itb.inst_hits                            0                       # ITB inst hits
system.cpu.itb.inst_misses                          0                       # ITB inst misses
system.cpu.itb.misses                               0                       # DTB misses
system.cpu.itb.perms_faults                         0                       # Number of TLB faults due to permissions restrictions
system.cpu.itb.prefetch_faults                      0                       # Number of TLB faults due to prefetch
system.cpu.itb.read_accesses                        0                       # DTB read accesses
system.cpu.itb.read_hits                            0                       # DTB read hits
system.cpu.itb.read_misses                          0                       # DTB read misses
system.cpu.itb.stage2_mmu.stage2_tlb.accesses            0                       # DTB accesses
system.cpu.itb.stage2_mmu.stage2_tlb.align_faults            0                       # Number of TLB faults due to alignment restrictions
system.cpu.itb.stage2_mmu.stage2_tlb.domain_faults            0                       # Number of TLB faults due to domain restrictions
system.cpu.itb.stage2_mmu.stage2_tlb.flush_entries            0                       # Number of entries that have been flushed from TLB
system.cpu.itb.stage2_mmu.stage2_tlb.flush_tlb            0                       # Number of times complete TLB was flushed
system.cpu.itb.stage2_mmu.stage2_tlb.flush_tlb_asid            0                       # Number of times TLB was flushed by ASID
system.cpu.itb.stage2_mmu.stage2_tlb.flush_tlb_mva            0                       # Number of times TLB was flushed by MVA
system.cpu.itb.stage2_mmu.stage2_tlb.flush_tlb_mva_asid            0                       # Number of times TLB was flushed by MVA & ASID
system.cpu.itb.stage2_mmu.stage2_tlb.hits            0                       # DTB hits
system.cpu.itb.stage2_mmu.stage2_tlb.inst_accesses            0                       # ITB inst accesses
system.cpu.itb.stage2_mmu.stage2_tlb.inst_hits            0                       # ITB inst hits
system.cpu.itb.stage2_mmu.stage2_tlb.inst_misses            0                       # ITB inst misses
system.cpu.itb.stage2_mmu.stage2_tlb.misses            0                       # DTB misses
system.cpu.itb.stage2_mmu.stage2_tlb.perms_faults            0                       # Number of TLB faults due to permissions restrictions
system.cpu.itb.stage2_mmu.stage2_tlb.prefetch_faults            0                       # Number of TLB faults due to prefetch
system.cpu.itb.stage2_mmu.stage2_tlb.read_accesses            0                       # DTB read accesses
system.cpu.itb.stage2_mmu.stage2_tlb.read_hits            0                       # DTB read hits
system.cpu.itb.stage2_mmu.stage2_tlb.read_misses            0                       # DTB read misses
system.cpu.itb.stage2_mmu.stage2_tlb.walker.walkRequestOrigin_Requested::Data            0                       # Table walker requests started/completed, data/inst
system.cpu.itb.stage2_mmu.stage2_tlb.walker.walkRequestOrigin_Requested::Inst            0                       # Table walker requests started/completed, data/inst
system.cpu.itb.stage2_mmu.stage2_tlb.walker.walkRequestOrigin_Requested::total            0                       # Table walker requests started/completed, data/inst
system.cpu.itb.stage2_mmu.stage2_tlb.walker.walkRequestOrigin_Completed::Data            0                       # Table walker requests started/completed, data/inst
system.cpu.itb.stage2_mmu.stage2_tlb.walker.walkRequestOrigin_Completed::Inst            0                       # Table walker requests started/completed, data/inst
system.cpu.itb.stage2_mmu.stage2_tlb.walker.walkRequestOrigin_Completed::total            0                       # Table walker requests started/completed, data/inst
system.cpu.itb.stage2_mmu.stage2_tlb.walker.walkRequestOrigin::total            0                       # Table walker requests started/completed, data/inst
system.cpu.itb.stage2_mmu.stage2_tlb.walker.walks            0                       # Table walker walks requested
system.cpu.itb.stage2_mmu.stage2_tlb.write_accesses            0                       # DTB write accesses
system.cpu.itb.stage2_mmu.stage2_tlb.write_hits            0                       # DTB write hits
system.cpu.itb.stage2_mmu.stage2_tlb.write_misses            0                       # DTB write misses
system.cpu.itb.walker.walkRequestOrigin_Requested::Data            0                       # Table walker requests started/completed, data/inst
system.cpu.itb.walker.walkRequestOrigin_Requested::Inst            0                       # Table walker requests started/completed, data/inst
system.cpu.itb.walker.walkRequestOrigin_Requested::total            0                       # Table walker requests started/completed, data/inst
system.cpu.itb.walker.walkRequestOrigin_Completed::Data            0                       # Table walker requests started/completed, data/inst
system.cpu.itb.walker.walkRequestOrigin_Completed::Inst            0                       # Table walker requests started/completed, data/inst
system.cpu.itb.walker.walkRequestOrigin_Completed::total            0                       # Table walker requests started/completed, data/inst
system.cpu.itb.walker.walkRequestOrigin::total            0                       # Table walker requests started/completed, data/inst
system.cpu.itb.walker.walks                         0                       # Table walker walks requested
system.cpu.itb.write_accesses                       0                       # DTB write accesses
system.cpu.itb.write_hits                           0                       # DTB write hits
system.cpu.itb.write_misses                         0                       # DTB write misses
system.cpu.memDep0.conflictingLoads              1155                       # Number of conflicting loads.
system.cpu.memDep0.conflictingStores             1277                       # Number of conflicting stores.
system.cpu.memDep0.insertedLoads               163123                       # Number of loads inserted to the mem dependence unit.
system.cpu.memDep0.insertedStores              275967                       # Number of stores inserted to the mem dependence unit.
system.cpu.misc_regfile_reads                 2712980                       # number of misc regfile reads
system.cpu.misc_regfile_writes                    561                       # number of misc regfile writes
system.cpu.numCycles                          2617508                       # number of cpu cycles simulated
system.cpu.numWorkItemsCompleted                    0                       # number of work items this cpu completed
system.cpu.numWorkItemsStarted                      0                       # number of work items this cpu started
system.cpu.rename.BlockCycles                  283292                       # Number of cycles rename is blocking
system.cpu.rename.CommittedMaps               1240714                       # Number of HB maps that are committed
system.cpu.rename.IQFullEvents                     33                       # Number of times rename has blocked due to IQ full
system.cpu.rename.IdleCycles                   993960                       # Number of cycles rename is idle
system.cpu.rename.LQFullEvents                    385                       # Number of times rename has blocked due to LQ full
system.cpu.rename.ROBFullEvents                   112                       # Number of times rename has blocked due to ROB full
system.cpu.rename.RenameLookups              12196452                       # Number of register rename lookups that rename has made
system.cpu.rename.RenamedInsts                6768957                       # Number of instructions processed by rename
system.cpu.rename.RenamedOperands             9175639                       # Number of destination operands rename has renamed
system.cpu.rename.RunCycles                    968982                       # Number of cycles rename is running
system.cpu.rename.SQFullEvents                  45213                       # Number of times rename has blocked due to SQ full
system.cpu.rename.SquashCycles                 224918                       # Number of cycles rename is squashing
system.cpu.rename.UnblockCycles                 46935                       # Number of cycles rename is unblocking
system.cpu.rename.UndoneMaps                  7934886                       # Number of HB maps that are undone due to squashing
system.cpu.rename.int_rename_lookups          7467215                       # Number of integer rename lookups
system.cpu.rename.serializeStallCycles          22105                       # count of cycles rename stalled for serializing inst
system.cpu.rename.serializingInsts               2503                       # count of serializing insts renamed
system.cpu.rename.skidInsts                     25870                       # count of insts added to the skid buffer
system.cpu.rename.tempSerializingInsts            597                       # count of temporary serializing insts renamed
system.cpu.rename.vec_rename_lookups             3159                       # Number of vector rename lookups
system.cpu.rob.rob_reads                      6887553                       # The number of ROB reads
system.cpu.rob.rob_writes                    10220145                       # The number of ROB writes
system.cpu.timesIdled                            2537                       # Number of times that the entire CPU went into an idle state and unscheduled itself
system.cpu.vec_regfile_reads                     2310                       # number of vector regfile reads
system.cpu.vec_regfile_writes                     184                       # number of vector regfile writes
system.cpu.workload.numSyscalls                    35                       # Number of system calls
system.membus.snoop_filter.hit_multi_requests            0                       # Number of requests hitting in the snoop filter with multiple (>1) holders of the requested data.
system.membus.snoop_filter.hit_multi_snoops            0                       # Number of snoops hitting in the snoop filter with multiple (>1) holders of the requested data.
system.membus.snoop_filter.hit_single_requests            8                       # Number of requests hitting in the snoop filter with a single holder of the requested data.
system.membus.snoop_filter.hit_single_snoops            0                       # Number of snoops hitting in the snoop filter with a single holder of the requested data.
system.membus.snoop_filter.tot_requests         27447                       # Total number of requests made to the snoop filter.
system.membus.snoop_filter.tot_snoops               0                       # Total number of snoops made to the snoop filter.
system.tol2bus.snoop_filter.hit_multi_requests           13                       # Number of requests hitting in the snoop filter with multiple (>1) holders of the requested data.
system.tol2bus.snoop_filter.hit_multi_snoops            0                       # Number of snoops hitting in the snoop filter with multiple (>1) holders of the requested data.
system.tol2bus.snoop_filter.hit_single_requests        30611                       # Number of requests hitting in the snoop filter with a single holder of the requested data.
system.tol2bus.snoop_filter.hit_single_snoops            0                       # Number of snoops hitting in the snoop filter with a single holder of the requested data.
system.tol2bus.snoop_filter.tot_requests        62503                       # Total number of requests made to the snoop filter.
system.tol2bus.snoop_filter.tot_snoops              0                       # Total number of snoops made to the snoop filter.
system.membus.trans_dist::ReadResp               1011                       # Transaction distribution
system.membus.trans_dist::WritebackDirty            1                       # Transaction distribution
system.membus.trans_dist::CleanEvict                7                       # Transaction distribution
system.membus.trans_dist::ReadExReq             26347                       # Transaction distribution
system.membus.trans_dist::ReadExResp            26346                       # Transaction distribution
system.membus.trans_dist::ReadSharedReq          1011                       # Transaction distribution
system.membus.trans_dist::InvalidateReq            81                       # Transaction distribution
system.membus.pkt_count_system.l2.mem_side::system.mem_ctrls.port        54804                       # Packet count per connected master and slave (bytes)
system.membus.pkt_count::total                  54804                       # Packet count per connected master and slave (bytes)
system.membus.pkt_size_system.l2.mem_side::system.mem_ctrls.port      1750912                       # Cumulative packet size per connected master and slave (bytes)
system.membus.pkt_size::total                 1750912                       # Cumulative packet size per connected master and slave (bytes)
system.membus.snoops                                0                       # Total snoops (count)
system.membus.snoopTraffic                          0                       # Total snoop traffic (bytes)
system.membus.snoop_fanout::samples             27439                       # Request fanout histogram
system.membus.snoop_fanout::mean                    0                       # Request fanout histogram
system.membus.snoop_fanout::stdev                   0                       # Request fanout histogram
system.membus.snoop_fanout::underflows              0      0.00%      0.00% # Request fanout histogram
system.membus.snoop_fanout::0                   27439    100.00%    100.00% # Request fanout histogram
system.membus.snoop_fanout::1                       0      0.00%    100.00% # Request fanout histogram
system.membus.snoop_fanout::overflows               0      0.00%    100.00% # Request fanout histogram
system.membus.snoop_fanout::min_value               0                       # Request fanout histogram
system.membus.snoop_fanout::max_value               0                       # Request fanout histogram
system.membus.snoop_fanout::total               27439                       # Request fanout histogram
system.membus.reqLayer0.occupancy            34767500                       # Layer occupancy (ticks)
system.membus.reqLayer0.utilization               2.7                       # Layer utilization (%)
system.membus.respLayer1.occupancy          144024250                       # Layer occupancy (ticks)
system.membus.respLayer1.utilization             11.0                       # Layer utilization (%)
system.membus.power_state.pwrStateResidencyTicks::UNDEFINED   1308752000                       # Cumulative time (in ticks) in various power states
system.tol2bus.trans_dist::ReadResp              5463                       # Transaction distribution
system.tol2bus.trans_dist::WritebackDirty        25474                       # Transaction distribution
system.tol2bus.trans_dist::WritebackClean         4946                       # Transaction distribution
system.tol2bus.trans_dist::CleanEvict             199                       # Transaction distribution
system.tol2bus.trans_dist::ReadExReq            26348                       # Transaction distribution
system.tol2bus.trans_dist::ReadExResp           26347                       # Transaction distribution
system.tol2bus.trans_dist::ReadCleanReq          5202                       # Transaction distribution
system.tol2bus.trans_dist::ReadSharedReq          261                       # Transaction distribution
system.tol2bus.trans_dist::InvalidateReq           81                       # Transaction distribution
system.tol2bus.trans_dist::InvalidateResp           81                       # Transaction distribution
system.tol2bus.pkt_count_system.cpu.icache.mem_side::system.l2.cpu_side        15350                       # Packet count per connected master and slave (bytes)
system.tol2bus.pkt_count_system.cpu.dcache.mem_side::system.l2.cpu_side        79044                       # Packet count per connected master and slave (bytes)
system.tol2bus.pkt_count::total                 94394                       # Packet count per connected master and slave (bytes)
system.tol2bus.pkt_size_system.cpu.icache.mem_side::system.l2.cpu_side       649472                       # Cumulative packet size per connected master and slave (bytes)
system.tol2bus.pkt_size_system.cpu.dcache.mem_side::system.l2.cpu_side      3333184                       # Cumulative packet size per connected master and slave (bytes)
system.tol2bus.pkt_size::total                3982656                       # Cumulative packet size per connected master and slave (bytes)
system.tol2bus.snoops                               8                       # Total snoops (count)
system.tol2bus.snoopTraffic                        64                       # Total snoop traffic (bytes)
system.tol2bus.snoop_fanout::samples            31900                       # Request fanout histogram
system.tol2bus.snoop_fanout::mean            0.000408                       # Request fanout histogram
system.tol2bus.snoop_fanout::stdev           0.020183                       # Request fanout histogram
system.tol2bus.snoop_fanout::underflows             0      0.00%      0.00% # Request fanout histogram
system.tol2bus.snoop_fanout::0                  31887     99.96%     99.96% # Request fanout histogram
system.tol2bus.snoop_fanout::1                     13      0.04%    100.00% # Request fanout histogram
system.tol2bus.snoop_fanout::2                      0      0.00%    100.00% # Request fanout histogram
system.tol2bus.snoop_fanout::overflows              0      0.00%    100.00% # Request fanout histogram
system.tol2bus.snoop_fanout::min_value              0                       # Request fanout histogram
system.tol2bus.snoop_fanout::max_value              1                       # Request fanout histogram
system.tol2bus.snoop_fanout::total              31900                       # Request fanout histogram
system.tol2bus.reqLayer0.occupancy           61670500                       # Layer occupancy (ticks)
system.tol2bus.reqLayer0.utilization              4.7                       # Layer utilization (%)
system.tol2bus.respLayer1.occupancy          39952500                       # Layer occupancy (ticks)
system.tol2bus.respLayer1.utilization             3.1                       # Layer utilization (%)
system.tol2bus.respLayer0.occupancy           7803000                       # Layer occupancy (ticks)
system.tol2bus.respLayer0.utilization             0.6                       # Layer utilization (%)
system.tol2bus.power_state.pwrStateResidencyTicks::UNDEFINED   1308752000                       # Cumulative time (in ticks) in various power states
system.voltage_domain.voltage                       1                       # Voltage in Volts
system.clk_domain.clock                          1000                       # Clock period in ticks
system.l2.demand_hits::.cpu.inst                 4339                       # number of demand (read+write) hits
system.l2.demand_hits::.cpu.data                  114                       # number of demand (read+write) hits
system.l2.demand_hits::total                     4453                       # number of demand (read+write) hits
system.l2.overall_hits::.cpu.inst                4339                       # number of overall hits
system.l2.overall_hits::.cpu.data                 114                       # number of overall hits
system.l2.overall_hits::total                    4453                       # number of overall hits
system.l2.demand_misses::.cpu.inst                863                       # number of demand (read+write) misses
system.l2.demand_misses::.cpu.data              26495                       # number of demand (read+write) misses
system.l2.demand_misses::total                  27358                       # number of demand (read+write) misses
system.l2.overall_misses::.cpu.inst               863                       # number of overall misses
system.l2.overall_misses::.cpu.data             26495                       # number of overall misses
system.l2.overall_misses::total                 27358                       # number of overall misses
system.l2.demand_miss_latency::.cpu.inst     68313500                       # number of demand (read+write) miss cycles
system.l2.demand_miss_latency::.cpu.data   1992668000                       # number of demand (read+write) miss cycles
system.l2.demand_miss_latency::total       2060981500                       # number of demand (read+write) miss cycles
system.l2.overall_miss_latency::.cpu.inst     68313500                       # number of overall miss cycles
system.l2.overall_miss_latency::.cpu.data   1992668000                       # number of overall miss cycles
system.l2.overall_miss_latency::total      2060981500                       # number of overall miss cycles
system.l2.demand_accesses::.cpu.inst             5202                       # number of demand (read+write) accesses
system.l2.demand_accesses::.cpu.data            26609                       # number of demand (read+write) accesses
system.l2.demand_accesses::total                31811                       # number of demand (read+write) accesses
system.l2.overall_accesses::.cpu.inst            5202                       # number of overall (read+write) accesses
system.l2.overall_accesses::.cpu.data           26609                       # number of overall (read+write) accesses
system.l2.overall_accesses::total               31811                       # number of overall (read+write) accesses
system.l2.demand_miss_rate::.cpu.inst        0.165898                       # miss rate for demand accesses
system.l2.demand_miss_rate::.cpu.data        0.995716                       # miss rate for demand accesses
system.l2.demand_miss_rate::total            0.860017                       # miss rate for demand accesses
system.l2.overall_miss_rate::.cpu.inst       0.165898                       # miss rate for overall accesses
system.l2.overall_miss_rate::.cpu.data       0.995716                       # miss rate for overall accesses
system.l2.overall_miss_rate::total           0.860017                       # miss rate for overall accesses
system.l2.demand_avg_miss_latency::.cpu.inst 79158.169177                       # average overall miss latency
system.l2.demand_avg_miss_latency::.cpu.data 75209.209285                       # average overall miss latency
system.l2.demand_avg_miss_latency::total 75333.778054                       # average overall miss latency
system.l2.overall_avg_miss_latency::.cpu.inst 79158.169177                       # average overall miss latency
system.l2.overall_avg_miss_latency::.cpu.data 75209.209285                       # average overall miss latency
system.l2.overall_avg_miss_latency::total 75333.778054                       # average overall miss latency
system.l2.blocked_cycles::no_mshrs                  0                       # number of cycles access was blocked
system.l2.blocked_cycles::no_targets                0                       # number of cycles access was blocked
system.l2.blocked::no_mshrs                         0                       # number of cycles access was blocked
system.l2.blocked::no_targets                       0                       # number of cycles access was blocked
system.l2.avg_blocked_cycles::no_mshrs            nan                       # average number of cycles each access was blocked
system.l2.avg_blocked_cycles::no_targets          nan                       # average number of cycles each access was blocked
system.l2.writebacks::.writebacks                   1                       # number of writebacks
system.l2.writebacks::total                         1                       # number of writebacks
system.l2.demand_mshr_misses::.cpu.inst           863                       # number of demand (read+write) MSHR misses
system.l2.demand_mshr_misses::.cpu.data         26495                       # number of demand (read+write) MSHR misses
system.l2.demand_mshr_misses::total             27358                       # number of demand (read+write) MSHR misses
system.l2.overall_mshr_misses::.cpu.inst          863                       # number of overall MSHR misses
system.l2.overall_mshr_misses::.cpu.data        26495                       # number of overall MSHR misses
system.l2.overall_mshr_misses::total            27358                       # number of overall MSHR misses
system.l2.demand_mshr_miss_latency::.cpu.inst     59683500                       # number of demand (read+write) MSHR miss cycles
system.l2.demand_mshr_miss_latency::.cpu.data   1727727501                       # number of demand (read+write) MSHR miss cycles
system.l2.demand_mshr_miss_latency::total   1787411001                       # number of demand (read+write) MSHR miss cycles
system.l2.overall_mshr_miss_latency::.cpu.inst     59683500                       # number of overall MSHR miss cycles
system.l2.overall_mshr_miss_latency::.cpu.data   1727727501                       # number of overall MSHR miss cycles
system.l2.overall_mshr_miss_latency::total   1787411001                       # number of overall MSHR miss cycles
system.l2.demand_mshr_miss_rate::.cpu.inst     0.165898                       # mshr miss rate for demand accesses
system.l2.demand_mshr_miss_rate::.cpu.data     0.995716                       # mshr miss rate for demand accesses
system.l2.demand_mshr_miss_rate::total       0.860017                       # mshr miss rate for demand accesses
system.l2.overall_mshr_miss_rate::.cpu.inst     0.165898                       # mshr miss rate for overall accesses
system.l2.overall_mshr_miss_rate::.cpu.data     0.995716                       # mshr miss rate for overall accesses
system.l2.overall_mshr_miss_rate::total      0.860017                       # mshr miss rate for overall accesses
system.l2.demand_avg_mshr_miss_latency::.cpu.inst 69158.169177                       # average overall mshr miss latency
system.l2.demand_avg_mshr_miss_latency::.cpu.data 65209.567881                       # average overall mshr miss latency
system.l2.demand_avg_mshr_miss_latency::total 65334.125338                       # average overall mshr miss latency
system.l2.overall_avg_mshr_miss_latency::.cpu.inst 69158.169177                       # average overall mshr miss latency
system.l2.overall_avg_mshr_miss_latency::.cpu.data 65209.567881                       # average overall mshr miss latency
system.l2.overall_avg_mshr_miss_latency::total 65334.125338                       # average overall mshr miss latency
system.l2.replacements                              8                       # number of replacements
system.l2.WritebackDirty_hits::.writebacks        25473                       # number of WritebackDirty hits
system.l2.WritebackDirty_hits::total            25473                       # number of WritebackDirty hits
system.l2.WritebackDirty_accesses::.writebacks        25473                       # number of WritebackDirty accesses(hits+misses)
system.l2.WritebackDirty_accesses::total        25473                       # number of WritebackDirty accesses(hits+misses)
system.l2.WritebackClean_hits::.writebacks         4934                       # number of WritebackClean hits
system.l2.WritebackClean_hits::total             4934                       # number of WritebackClean hits
system.l2.WritebackClean_accesses::.writebacks         4934                       # number of WritebackClean accesses(hits+misses)
system.l2.WritebackClean_accesses::total         4934                       # number of WritebackClean accesses(hits+misses)
system.l2.ReadExReq_hits::.cpu.data                 1                       # number of ReadExReq hits
system.l2.ReadExReq_hits::total                     1                       # number of ReadExReq hits
system.l2.ReadExReq_misses::.cpu.data           26347                       # number of ReadExReq misses
system.l2.ReadExReq_misses::total               26347                       # number of ReadExReq misses
system.l2.ReadExReq_miss_latency::.cpu.data   1980458500                       # number of ReadExReq miss cycles
system.l2.ReadExReq_miss_latency::total    1980458500                       # number of ReadExReq miss cycles
system.l2.ReadExReq_accesses::.cpu.data         26348                       # number of ReadExReq accesses(hits+misses)
system.l2.ReadExReq_accesses::total             26348                       # number of ReadExReq accesses(hits+misses)
system.l2.ReadExReq_miss_rate::.cpu.data     0.999962                       # miss rate for ReadExReq accesses
system.l2.ReadExReq_miss_rate::total         0.999962                       # miss rate for ReadExReq accesses
system.l2.ReadExReq_avg_miss_latency::.cpu.data 75168.273428                       # average ReadExReq miss latency
system.l2.ReadExReq_avg_miss_latency::total 75168.273428                       # average ReadExReq miss latency
system.l2.ReadExReq_mshr_misses::.cpu.data        26347                       # number of ReadExReq MSHR misses
system.l2.ReadExReq_mshr_misses::total          26347                       # number of ReadExReq MSHR misses
system.l2.ReadExReq_mshr_miss_latency::.cpu.data   1716998001                       # number of ReadExReq MSHR miss cycles
system.l2.ReadExReq_mshr_miss_latency::total   1716998001                       # number of ReadExReq MSHR miss cycles
system.l2.ReadExReq_mshr_miss_rate::.cpu.data     0.999962                       # mshr miss rate for ReadExReq accesses
system.l2.ReadExReq_mshr_miss_rate::total     0.999962                       # mshr miss rate for ReadExReq accesses
system.l2.ReadExReq_avg_mshr_miss_latency::.cpu.data 65168.634038                       # average ReadExReq mshr miss latency
system.l2.ReadExReq_avg_mshr_miss_latency::total 65168.634038                       # average ReadExReq mshr miss latency
system.l2.ReadCleanReq_hits::.cpu.inst           4339                       # number of ReadCleanReq hits
system.l2.ReadCleanReq_hits::total               4339                       # number of ReadCleanReq hits
system.l2.ReadCleanReq_misses::.cpu.inst          863                       # number of ReadCleanReq misses
system.l2.ReadCleanReq_misses::total              863                       # number of ReadCleanReq misses
system.l2.ReadCleanReq_miss_latency::.cpu.inst     68313500                       # number of ReadCleanReq miss cycles
system.l2.ReadCleanReq_miss_latency::total     68313500                       # number of ReadCleanReq miss cycles
system.l2.ReadCleanReq_accesses::.cpu.inst         5202                       # number of ReadCleanReq accesses(hits+misses)
system.l2.ReadCleanReq_accesses::total           5202                       # number of ReadCleanReq accesses(hits+misses)
system.l2.ReadCleanReq_miss_rate::.cpu.inst     0.165898                       # miss rate for ReadCleanReq accesses
system.l2.ReadCleanReq_miss_rate::total      0.165898                       # miss rate for ReadCleanReq accesses
system.l2.ReadCleanReq_avg_miss_latency::.cpu.inst 79158.169177                       # average ReadCleanReq miss latency
system.l2.ReadCleanReq_avg_miss_latency::total 79158.169177                       # average ReadCleanReq miss latency
system.l2.ReadCleanReq_mshr_misses::.cpu.inst          863                       # number of ReadCleanReq MSHR misses
system.l2.ReadCleanReq_mshr_misses::total          863                       # number of ReadCleanReq MSHR misses
system.l2.ReadCleanReq_mshr_miss_latency::.cpu.inst     59683500                       # number of ReadCleanReq MSHR miss cycles
system.l2.ReadCleanReq_mshr_miss_latency::total     59683500                       # number of ReadCleanReq MSHR miss cycles
system.l2.ReadCleanReq_mshr_miss_rate::.cpu.inst     0.165898                       # mshr miss rate for ReadCleanReq accesses
[...]
system.cpu.dcache.overall_miss_latency::total  12552694311                       # number of overall miss cycles
system.cpu.dcache.demand_accesses::.cpu.data       334891                       # number of demand (read+write) accesses
system.cpu.dcache.demand_accesses::total       334891                       # number of demand (read+write) accesses
system.cpu.dcache.overall_accesses::.cpu.data       335029                       # number of overall (read+write) accesses
system.cpu.dcache.overall_accesses::total       335029                       # number of overall (read+write) accesses
system.cpu.dcache.demand_miss_rate::.cpu.data     0.629232                       # miss rate for demand accesses
system.cpu.dcache.demand_miss_rate::total     0.629232                       # miss rate for demand accesses
system.cpu.dcache.overall_miss_rate::.cpu.data     0.628993                       # miss rate for overall accesses
system.cpu.dcache.overall_miss_rate::total     0.628993                       # miss rate for overall accesses
system.cpu.dcache.demand_avg_miss_latency::.cpu.data 59569.362346                       # average overall miss latency
system.cpu.dcache.demand_avg_miss_latency::total 59569.362346                       # average overall miss latency
system.cpu.dcache.overall_avg_miss_latency::.cpu.data 59567.383589                       # average overall miss latency
system.cpu.dcache.overall_avg_miss_latency::total 59567.383589                       # average overall miss latency
system.cpu.dcache.blocked_cycles::no_mshrs        58252                       # number of cycles access was blocked
system.cpu.dcache.blocked_cycles::no_targets            0                       # number of cycles access was blocked
system.cpu.dcache.blocked::no_mshrs               321                       # number of cycles access was blocked
system.cpu.dcache.blocked::no_targets               0                       # number of cycles access was blocked
system.cpu.dcache.avg_blocked_cycles::no_mshrs   181.470405                       # average number of cycles each access was blocked
system.cpu.dcache.avg_blocked_cycles::no_targets          nan                       # average number of cycles each access was blocked
system.cpu.dcache.writebacks::.writebacks        25473                       # number of writebacks
system.cpu.dcache.writebacks::total             25473                       # number of writebacks
system.cpu.dcache.demand_mshr_hits::.cpu.data       184042                       # number of demand (read+write) MSHR hits
system.cpu.dcache.demand_mshr_hits::total       184042                       # number of demand (read+write) MSHR hits
system.cpu.dcache.overall_mshr_hits::.cpu.data       184042                       # number of overall MSHR hits
system.cpu.dcache.overall_mshr_hits::total       184042                       # number of overall MSHR hits
system.cpu.dcache.demand_mshr_misses::.cpu.data        26682                       # number of demand (read+write) MSHR misses
system.cpu.dcache.demand_mshr_misses::total        26682                       # number of demand (read+write) MSHR misses
system.cpu.dcache.overall_mshr_misses::.cpu.data        26689                       # number of overall MSHR misses
system.cpu.dcache.overall_mshr_misses::total        26689                       # number of overall MSHR misses
system.cpu.dcache.demand_mshr_miss_latency::.cpu.data   2035792970                       # number of demand (read+write) MSHR miss cycles
system.cpu.dcache.demand_mshr_miss_latency::total   2035792970                       # number of demand (read+write) MSHR miss cycles
system.cpu.dcache.overall_mshr_miss_latency::.cpu.data   2036308470                       # number of overall MSHR miss cycles
system.cpu.dcache.overall_mshr_miss_latency::total   2036308470                       # number of overall MSHR miss cycles
system.cpu.dcache.demand_mshr_miss_rate::.cpu.data     0.079674                       # mshr miss rate for demand accesses
system.cpu.dcache.demand_mshr_miss_rate::total     0.079674                       # mshr miss rate for demand accesses
system.cpu.dcache.overall_mshr_miss_rate::.cpu.data     0.079662                       # mshr miss rate for overall accesses
system.cpu.dcache.overall_mshr_miss_rate::total     0.079662                       # mshr miss rate for overall accesses
system.cpu.dcache.demand_avg_mshr_miss_latency::.cpu.data 76298.364815                       # average overall mshr miss latency
system.cpu.dcache.demand_avg_mshr_miss_latency::total 76298.364815                       # average overall mshr miss latency
system.cpu.dcache.overall_avg_mshr_miss_latency::.cpu.data 76297.668328                       # average overall mshr miss latency
system.cpu.dcache.overall_avg_mshr_miss_latency::total 76297.668328                       # average overall mshr miss latency
system.cpu.dcache.replacements                  25665                       # number of replacements
system.cpu.dcache.ReadReq_hits::.cpu.data        97895                       # number of ReadReq hits
system.cpu.dcache.ReadReq_hits::total           97895                       # number of ReadReq hits
system.cpu.dcache.ReadReq_misses::.cpu.data          533                       # number of ReadReq misses
system.cpu.dcache.ReadReq_misses::total           533                       # number of ReadReq misses
system.cpu.dcache.ReadReq_miss_latency::.cpu.data     28394000                       # number of ReadReq miss cycles
system.cpu.dcache.ReadReq_miss_latency::total     28394000                       # number of ReadReq miss cycles
system.cpu.dcache.ReadReq_accesses::.cpu.data        98428                       # number of ReadReq accesses(hits+misses)
system.cpu.dcache.ReadReq_accesses::total        98428                       # number of ReadReq accesses(hits+misses)
system.cpu.dcache.ReadReq_miss_rate::.cpu.data     0.005415                       # miss rate for ReadReq accesses
system.cpu.dcache.ReadReq_miss_rate::total     0.005415                       # miss rate for ReadReq accesses
system.cpu.dcache.ReadReq_avg_miss_latency::.cpu.data 53272.045028                       # average ReadReq miss latency
system.cpu.dcache.ReadReq_avg_miss_latency::total 53272.045028                       # average ReadReq miss latency
system.cpu.dcache.ReadReq_mshr_hits::.cpu.data          280                       # number of ReadReq MSHR hits
system.cpu.dcache.ReadReq_mshr_hits::total          280                       # number of ReadReq MSHR hits
system.cpu.dcache.ReadReq_mshr_misses::.cpu.data          253                       # number of ReadReq MSHR misses
system.cpu.dcache.ReadReq_mshr_misses::total          253                       # number of ReadReq MSHR misses
system.cpu.dcache.ReadReq_mshr_miss_latency::.cpu.data     13197000                       # number of ReadReq MSHR miss cycles
system.cpu.dcache.ReadReq_mshr_miss_latency::total     13197000                       # number of ReadReq MSHR miss cycles
system.cpu.dcache.ReadReq_mshr_miss_rate::.cpu.data     0.002570                       # mshr miss rate for ReadReq accesses
system.cpu.dcache.ReadReq_mshr_miss_rate::total     0.002570                       # mshr miss rate for ReadReq accesses
system.cpu.dcache.ReadReq_avg_mshr_miss_latency::.cpu.data 52162.055336                       # average ReadReq mshr miss latency
system.cpu.dcache.ReadReq_avg_mshr_miss_latency::total 52162.055336                       # average ReadReq mshr miss latency
system.cpu.dcache.WriteReq_hits::.cpu.data        26228                       # number of WriteReq hits
system.cpu.dcache.WriteReq_hits::total          26228                       # number of WriteReq hits
system.cpu.dcache.WriteReq_misses::.cpu.data       210133                       # number of WriteReq misses
system.cpu.dcache.WriteReq_misses::total       210133                       # number of WriteReq misses
system.cpu.dcache.WriteReq_miss_latency::.cpu.data  12522461337                       # number of WriteReq miss cycles
system.cpu.dcache.WriteReq_miss_latency::total  12522461337                       # number of WriteReq miss cycles
system.cpu.dcache.WriteReq_accesses::.cpu.data       236361                       # number of WriteReq accesses(hits+misses)
system.cpu.dcache.WriteReq_accesses::total       236361                       # number of WriteReq accesses(hits+misses)
system.cpu.dcache.WriteReq_miss_rate::.cpu.data     0.889034                       # miss rate for WriteReq accesses
system.cpu.dcache.WriteReq_miss_rate::total     0.889034                       # miss rate for WriteReq accesses
system.cpu.dcache.WriteReq_avg_miss_latency::.cpu.data 59593.026022                       # average WriteReq miss latency
system.cpu.dcache.WriteReq_avg_miss_latency::total 59593.026022                       # average WriteReq miss latency
system.cpu.dcache.WriteReq_mshr_hits::.cpu.data       183762                       # number of WriteReq MSHR hits
system.cpu.dcache.WriteReq_mshr_hits::total       183762                       # number of WriteReq MSHR hits
system.cpu.dcache.WriteReq_mshr_misses::.cpu.data        26371                       # number of WriteReq MSHR misses
system.cpu.dcache.WriteReq_mshr_misses::total        26371                       # number of WriteReq MSHR misses
system.cpu.dcache.WriteReq_mshr_miss_latency::.cpu.data   2020814996                       # number of WriteReq MSHR miss cycles
system.cpu.dcache.WriteReq_mshr_miss_latency::total   2020814996                       # number of WriteReq MSHR miss cycles
system.cpu.dcache.WriteReq_mshr_miss_rate::.cpu.data     0.111571                       # mshr miss rate for WriteReq accesses
system.cpu.dcache.WriteReq_mshr_miss_rate::total     0.111571                       # mshr miss rate for WriteReq accesses
system.cpu.dcache.WriteReq_avg_mshr_miss_latency::.cpu.data 76630.199689                       # average WriteReq mshr miss latency
system.cpu.dcache.WriteReq_avg_mshr_miss_latency::total 76630.199689                       # average WriteReq mshr miss latency
system.cpu.dcache.SoftPFReq_hits::.cpu.data          131                       # number of SoftPFReq hits
system.cpu.dcache.SoftPFReq_hits::total           131                       # number of SoftPFReq hits
system.cpu.dcache.SoftPFReq_misses::.cpu.data            7                       # number of SoftPFReq misses
system.cpu.dcache.SoftPFReq_misses::total            7                       # number of SoftPFReq misses
system.cpu.dcache.SoftPFReq_accesses::.cpu.data          138                       # number of SoftPFReq accesses(hits+misses)
system.cpu.dcache.SoftPFReq_accesses::total          138                       # number of SoftPFReq accesses(hits+misses)
system.cpu.dcache.SoftPFReq_miss_rate::.cpu.data     0.050725                       # miss rate for SoftPFReq accesses
system.cpu.dcache.SoftPFReq_miss_rate::total     0.050725                       # miss rate for SoftPFReq accesses
system.cpu.dcache.SoftPFReq_mshr_misses::.cpu.data            7                       # number of SoftPFReq MSHR misses
system.cpu.dcache.SoftPFReq_mshr_misses::total            7                       # number of SoftPFReq MSHR misses
system.cpu.dcache.SoftPFReq_mshr_miss_latency::.cpu.data       515500                       # number of SoftPFReq MSHR miss cycles
system.cpu.dcache.SoftPFReq_mshr_miss_latency::total       515500                       # number of SoftPFReq MSHR miss cycles
system.cpu.dcache.SoftPFReq_mshr_miss_rate::.cpu.data     0.050725                       # mshr miss rate for SoftPFReq accesses
system.cpu.dcache.SoftPFReq_mshr_miss_rate::total     0.050725                       # mshr miss rate for SoftPFReq accesses
system.cpu.dcache.SoftPFReq_avg_mshr_miss_latency::.cpu.data 73642.857143                       # average SoftPFReq mshr miss latency
system.cpu.dcache.SoftPFReq_avg_mshr_miss_latency::total 73642.857143                       # average SoftPFReq mshr miss latency
system.cpu.dcache.WriteLineReq_hits::.cpu.data           44                       # number of WriteLineReq hits
system.cpu.dcache.WriteLineReq_hits::total           44                       # number of WriteLineReq hits
system.cpu.dcache.WriteLineReq_misses::.cpu.data           58                       # number of WriteLineReq misses
system.cpu.dcache.WriteLineReq_misses::total           58                       # number of WriteLineReq misses
system.cpu.dcache.WriteLineReq_miss_latency::.cpu.data      1838974                       # number of WriteLineReq miss cycles
system.cpu.dcache.WriteLineReq_miss_latency::total      1838974                       # number of WriteLineReq miss cycles
system.cpu.dcache.WriteLineReq_accesses::.cpu.data          102                       # number of WriteLineReq accesses(hits+misses)
system.cpu.dcache.WriteLineReq_accesses::total          102                       # number of WriteLineReq accesses(hits+misses)
system.cpu.dcache.WriteLineReq_miss_rate::.cpu.data     0.568627                       # miss rate for WriteLineReq accesses
system.cpu.dcache.WriteLineReq_miss_rate::total     0.568627                       # miss rate for WriteLineReq accesses
system.cpu.dcache.WriteLineReq_avg_miss_latency::.cpu.data 31706.448276                       # average WriteLineReq miss latency
system.cpu.dcache.WriteLineReq_avg_miss_latency::total 31706.448276                       # average WriteLineReq miss latency
system.cpu.dcache.WriteLineReq_mshr_misses::.cpu.data           58                       # number of WriteLineReq MSHR misses
system.cpu.dcache.WriteLineReq_mshr_misses::total           58                       # number of WriteLineReq MSHR misses
system.cpu.dcache.WriteLineReq_mshr_miss_latency::.cpu.data      1780974                       # number of WriteLineReq MSHR miss cycles
system.cpu.dcache.WriteLineReq_mshr_miss_latency::total      1780974                       # number of WriteLineReq MSHR miss cycles
system.cpu.dcache.WriteLineReq_mshr_miss_rate::.cpu.data     0.568627                       # mshr miss rate for WriteLineReq accesses
system.cpu.dcache.WriteLineReq_mshr_miss_rate::total     0.568627                       # mshr miss rate for WriteLineReq accesses
system.cpu.dcache.WriteLineReq_avg_mshr_miss_latency::.cpu.data 30706.448276                       # average WriteLineReq mshr miss latency
system.cpu.dcache.WriteLineReq_avg_mshr_miss_latency::total 30706.448276                       # average WriteLineReq mshr miss latency
system.cpu.dcache.LoadLockedReq_hits::.cpu.data          283                       # number of LoadLockedReq hits
system.cpu.dcache.LoadLockedReq_hits::total          283                       # number of LoadLockedReq hits
system.cpu.dcache.LoadLockedReq_misses::.cpu.data            2                       # number of LoadLockedReq misses
system.cpu.dcache.LoadLockedReq_misses::total            2                       # number of LoadLockedReq misses
system.cpu.dcache.LoadLockedReq_miss_latency::.cpu.data       184000                       # number of LoadLockedReq miss cycles
system.cpu.dcache.LoadLockedReq_miss_latency::total       184000                       # number of LoadLockedReq miss cycles
system.cpu.dcache.LoadLockedReq_accesses::.cpu.data          285                       # number of LoadLockedReq accesses(hits+misses)
system.cpu.dcache.LoadLockedReq_accesses::total          285                       # number of LoadLockedReq accesses(hits+misses)
system.cpu.dcache.LoadLockedReq_miss_rate::.cpu.data     0.007018                       # miss rate for LoadLockedReq accesses
system.cpu.dcache.LoadLockedReq_miss_rate::total     0.007018                       # miss rate for LoadLockedReq accesses
system.cpu.dcache.LoadLockedReq_avg_miss_latency::.cpu.data        92000                       # average LoadLockedReq miss latency
system.cpu.dcache.LoadLockedReq_avg_miss_latency::total        92000                       # average LoadLockedReq miss latency
system.cpu.dcache.LoadLockedReq_mshr_hits::.cpu.data            1                       # number of LoadLockedReq MSHR hits
system.cpu.dcache.LoadLockedReq_mshr_hits::total            1                       # number of LoadLockedReq MSHR hits
system.cpu.dcache.LoadLockedReq_mshr_misses::.cpu.data            1                       # number of LoadLockedReq MSHR misses
system.cpu.dcache.LoadLockedReq_mshr_misses::total            1                       # number of LoadLockedReq MSHR misses
system.cpu.dcache.LoadLockedReq_mshr_miss_latency::.cpu.data        82000                       # number of LoadLockedReq MSHR miss cycles
system.cpu.dcache.LoadLockedReq_mshr_miss_latency::total        82000                       # number of LoadLockedReq MSHR miss cycles
system.cpu.dcache.LoadLockedReq_mshr_miss_rate::.cpu.data     0.003509                       # mshr miss rate for LoadLockedReq accesses
system.cpu.dcache.LoadLockedReq_mshr_miss_rate::total     0.003509                       # mshr miss rate for LoadLockedReq accesses
system.cpu.dcache.LoadLockedReq_avg_mshr_miss_latency::.cpu.data        82000                       # average LoadLockedReq mshr miss latency
system.cpu.dcache.LoadLockedReq_avg_mshr_miss_latency::total        82000                       # average LoadLockedReq mshr miss latency
system.cpu.dcache.StoreCondReq_hits::.cpu.data          138                       # number of StoreCondReq hits
system.cpu.dcache.StoreCondReq_hits::total          138                       # number of StoreCondReq hits
system.cpu.dcache.StoreCondReq_accesses::.cpu.data          138                       # number of StoreCondReq accesses(hits+misses)
system.cpu.dcache.StoreCondReq_accesses::total          138                       # number of StoreCondReq accesses(hits+misses)
system.cpu.dcache.power_state.pwrStateResidencyTicks::UNDEFINED   1308752000                       # Cumulative time (in ticks) in various power states
system.cpu.dcache.tags.tagsinuse           915.585103                       # Cycle average of tags in use
system.cpu.dcache.tags.total_refs              151408                       # Total number of references to valid blocks.
system.cpu.dcache.tags.sampled_refs             26689                       # Sample count of references to valid blocks.
system.cpu.dcache.tags.avg_refs              5.673049                       # Average number of references to valid blocks.
system.cpu.dcache.tags.warmup_cycle            176500                       # Cycle when the warmup percentage was hit.
system.cpu.dcache.tags.occ_blocks::.cpu.data   915.585103                       # Average occupied blocks per requestor
system.cpu.dcache.tags.occ_percent::.cpu.data     0.894126                       # Average percentage of cache occupancy
system.cpu.dcache.tags.occ_percent::total     0.894126                       # Average percentage of cache occupancy
system.cpu.dcache.tags.occ_task_id_blocks::1024         1024                       # Occupied blocks per task id
system.cpu.dcache.tags.age_task_id_blocks_1024::0          235                       # Occupied blocks per task id
system.cpu.dcache.tags.age_task_id_blocks_1024::1          789                       # Occupied blocks per task id
system.cpu.dcache.tags.occ_task_id_percent::1024            1                       # Percentage of cache occupancy per task id
system.cpu.dcache.tags.tag_accesses            697593                       # Number of tag accesses
system.cpu.dcache.tags.data_accesses           697593                       # Number of data accesses
system.cpu.dcache.tags.power_state.pwrStateResidencyTicks::UNDEFINED   1308752000                       # Cumulative time (in ticks) in various power states
system.cpu.power_state.pwrStateResidencyTicks::ON   1308752000                       # Cumulative time (in ticks) in various power states

---------- End Simulation Statistics   ----------
