
---------- Begin Simulation Statistics ----------
final_tick                                 1001221500                       # Number of ticks from beginning of simulation (restored from checkpoints and never reset)
host_inst_rate                                  62728                       # Simulator instruction rate (inst/s)
host_mem_usage                                 881672                       # Number of bytes of host memory used
host_op_rate                                    67441                       # Simulator op (including micro ops) rate (op/s)
host_seconds                                    15.94                       # Real time elapsed on the host
host_tick_rate                               62804306                       # Simulator tick rate (ticks/s)
sim_freq                                 1000000000000                       # Frequency of simulated ticks
sim_insts                                     1000000                       # Number of instructions simulated
sim_ops                                       1075135                       # Number of ops (including micro ops) simulated
sim_seconds                                  0.001001                       # Number of seconds simulated
sim_ticks                                  1001221500                       # Number of ticks simulated
system.cpu.branchPred.BTBCorrect                    0                       # Number of correct BTB predictions (this stat may not work properly.
system.cpu.branchPred.BTBHitPct             88.028758                       # BTB Hit Percentage
system.cpu.branchPred.BTBHits                  190643                       # Number of BTB hits
system.cpu.branchPred.BTBLookups               216569                       # Number of BTB lookups
system.cpu.branchPred.RASInCorrect                 14                       # Number of incorrect RAS predictions.
system.cpu.branchPred.condIncorrect             85909                       # Number of conditional branches incorrect
system.cpu.branchPred.condPredicted            577919                       # Number of conditional branches predicted
system.cpu.branchPred.indirectHits               7983                       # Number of indirect target hits.
system.cpu.branchPred.indirectLookups            9232                       # Number of indirect predictor lookups.
system.cpu.branchPred.indirectMisses             1249                       # Number of indirect misses.
system.cpu.branchPred.lookups                  837999                       # Number of BP lookups
system.cpu.branchPred.usedRAS                   98695                       # Number of times the RAS was used to get a target.
system.cpu.branchPredindirectMispredicted          503                       # Number of mispredicted indirect branches.
system.cpu.cc_regfile_reads                    599319                       # number of cc regfile reads
system.cpu.cc_regfile_writes                   550761                       # number of cc regfile writes
system.cpu.commit.amos                              0                       # Number of atomic instructions committed
system.cpu.commit.branchMispredicts             84225                       # The number of times a branch was mispredicted
system.cpu.commit.branches                     250422                       # Number of branches committed
system.cpu.commit.bw_lim_events                 22915                       # number cycles where commit BW limit reached
system.cpu.commit.commitNonSpecStalls             540                       # The number of times commit has been forced to stall to communicate backwards
system.cpu.commit.commitSquashedInsts         1482018                       # The number of squashed insts skipped by commit
system.cpu.commit.committedInsts              1003357                       # Number of instructions committed
system.cpu.commit.committedOps                1078492                       # Number of ops (including micro ops) committed
system.cpu.commit.committed_per_cycle::samples      1650567                       # Number of insts commited each cycle
system.cpu.commit.committed_per_cycle::mean     0.653407                       # Number of insts commited each cycle
system.cpu.commit.committed_per_cycle::stdev     1.519706                       # Number of insts commited each cycle
system.cpu.commit.committed_per_cycle::underflows            0      0.00%      0.00% # Number of insts commited each cycle
system.cpu.commit.committed_per_cycle::0      1240906     75.18%     75.18% # Number of insts commited each cycle
system.cpu.commit.committed_per_cycle::1       157480      9.54%     84.72% # Number of insts commited each cycle
system.cpu.commit.committed_per_cycle::2       112507      6.82%     91.54% # Number of insts commited each cycle
system.cpu.commit.committed_per_cycle::3        35644      2.16%     93.70% # Number of insts commited each cycle
system.cpu.commit.committed_per_cycle::4        34392      2.08%     95.78% # Number of insts commited each cycle
system.cpu.commit.committed_per_cycle::5        23801      1.44%     97.22% # Number of insts commited each cycle
system.cpu.commit.committed_per_cycle::6        11281      0.68%     97.91% # Number of insts commited each cycle
system.cpu.commit.committed_per_cycle::7        11641      0.71%     98.61% # Number of insts commited each cycle
system.cpu.commit.committed_per_cycle::8        22915      1.39%    100.00% # Number of insts commited each cycle
system.cpu.commit.committed_per_cycle::overflows            0      0.00%    100.00% # Number of insts commited each cycle
system.cpu.commit.committed_per_cycle::min_value            0                       # Number of insts commited each cycle
system.cpu.commit.committed_per_cycle::max_value            8                       # Number of insts commited each cycle
system.cpu.commit.committed_per_cycle::total      1650567                       # Number of insts commited each cycle
system.cpu.commit.fp_insts                          0                       # Number of committed floating point instructions.
system.cpu.commit.function_calls                24973                       # Number of function calls committed.
system.cpu.commit.int_insts                    934829                       # Number of committed integer instructions.
system.cpu.commit.loads                        104843                       # Number of loads committed
system.cpu.commit.membars                         532                       # Number of memory barriers committed
system.cpu.commit.op_class_0::No_OpClass           12      0.00%      0.00% # Class of committed instruction
system.cpu.commit.op_class_0::IntAlu           870934     80.75%     80.76% # Class of committed instruction
system.cpu.commit.op_class_0::IntMult           40054      3.71%     84.47% # Class of committed instruction
system.cpu.commit.op_class_0::IntDiv               22      0.00%     84.47% # Class of committed instruction
system.cpu.commit.op_class_0::FloatAdd              0      0.00%     84.47% # Class of committed instruction
system.cpu.commit.op_class_0::FloatCmp              0      0.00%     84.47% # Class of committed instruction
system.cpu.commit.op_class_0::FloatCvt              0      0.00%     84.47% # Class of committed instruction
system.cpu.commit.op_class_0::FloatMult             0      0.00%     84.47% # Class of committed instruction
system.cpu.commit.op_class_0::FloatMultAcc            0      0.00%     84.47% # Class of committed instruction
system.cpu.commit.op_class_0::FloatDiv              0      0.00%     84.47% # Class of committed instruction
system.cpu.commit.op_class_0::FloatMisc             1      0.00%     84.47% # Class of committed instruction
system.cpu.commit.op_class_0::FloatSqrt             0      0.00%     84.47% # Class of committed instruction
system.cpu.commit.op_class_0::SimdAdd              38      0.00%     84.48% # Class of committed instruction
system.cpu.commit.op_class_0::SimdAddAcc            0      0.00%     84.48% # Class of committed instruction
system.cpu.commit.op_class_0::SimdAlu              47      0.00%     84.48% # Class of committed instruction
system.cpu.commit.op_class_0::SimdCmp              49      0.00%     84.48% # Class of committed instruction
system.cpu.commit.op_class_0::SimdCvt               0      0.00%     84.48% # Class of committed instruction
system.cpu.commit.op_class_0::SimdMisc             47      0.00%     84.49% # Class of committed instruction
system.cpu.commit.op_class_0::SimdMult              0      0.00%     84.49% # Class of committed instruction
system.cpu.commit.op_class_0::SimdMultAcc            0      0.00%     84.49% # Class of committed instruction
system.cpu.commit.op_class_0::SimdShift             0      0.00%     84.49% # Class of committed instruction
system.cpu.commit.op_class_0::SimdShiftAcc            0      0.00%     84.49% # Class of committed instruction
system.cpu.commit.op_class_0::SimdDiv               0      0.00%     84.49% # Class of committed instruction
system.cpu.commit.op_class_0::SimdSqrt              0      0.00%     84.49% # Class of committed instruction
system.cpu.commit.op_class_0::SimdFloatAdd            0      0.00%     84.49% # Class of committed instruction
system.cpu.commit.op_class_0::SimdFloatAlu            0      0.00%     84.49% # Class of committed instruction
system.cpu.commit.op_class_0::SimdFloatCmp            0      0.00%     84.49% # Class of committed instruction
system.cpu.commit.op_class_0::SimdFloatCvt            0      0.00%     84.49% # Class of committed instruction
system.cpu.commit.op_class_0::SimdFloatDiv            0      0.00%     84.49% # Class of committed instruction
system.cpu.commit.op_class_0::SimdFloatMisc            0      0.00%     84.49% # Class of committed instruction
system.cpu.commit.op_class_0::SimdFloatMult            0      0.00%     84.49% # Class of committed instruction
system.cpu.commit.op_class_0::SimdFloatMultAcc            0      0.00%     84.49% # Class of committed instruction
system.cpu.commit.op_class_0::SimdFloatSqrt            0      0.00%     84.49% # Class of committed instruction
system.cpu.commit.op_class_0::SimdReduceAdd            0      0.00%     84.49% # Class of committed instruction
system.cpu.commit.op_class_0::SimdReduceAlu            0      0.00%     84.49% # Class of committed instruction
system.cpu.commit.op_class_0::SimdReduceCmp            0      0.00%     84.49% # Class of committed instruction
system.cpu.commit.op_class_0::SimdFloatReduceAdd            0      0.00%     84.49% # Class of committed instruction
system.cpu.commit.op_class_0::SimdFloatReduceCmp            0      0.00%     84.49% # Class of committed instruction
system.cpu.commit.op_class_0::SimdAes               0      0.00%     84.49% # Class of committed instruction
system.cpu.commit.op_class_0::SimdAesMix            0      0.00%     84.49% # Class of committed instruction
system.cpu.commit.op_class_0::SimdSha1Hash            0      0.00%     84.49% # Class of committed instruction
system.cpu.commit.op_class_0::SimdSha1Hash2            0      0.00%     84.49% # Class of committed instruction
system.cpu.commit.op_class_0::SimdSha256Hash            0      0.00%     84.49% # Class of committed instruction
system.cpu.commit.op_class_0::SimdSha256Hash2            0      0.00%     84.49% # Class of committed instruction
system.cpu.commit.op_class_0::SimdShaSigma2            0      0.00%     84.49% # Class of committed instruction
system.cpu.commit.op_class_0::SimdShaSigma3            0      0.00%     84.49% # Class of committed instruction
system.cpu.commit.op_class_0::SimdPredAlu            0      0.00%     84.49% # Class of committed instruction
system.cpu.commit.op_class_0::MemRead          104843      9.72%     94.21% # Class of committed instruction
system.cpu.commit.op_class_0::MemWrite          62445      5.79%    100.00% # Class of committed instruction
system.cpu.commit.op_class_0::FloatMemRead            0      0.00%    100.00% # Class of committed instruction
system.cpu.commit.op_class_0::FloatMemWrite            0      0.00%    100.00% # Class of committed instruction
system.cpu.commit.op_class_0::IprAccess             0      0.00%    100.00% # Class of committed instruction
system.cpu.commit.op_class_0::InstPrefetch            0      0.00%    100.00% # Class of committed instruction
system.cpu.commit.op_class_0::total           1078492                       # Class of committed instruction
system.cpu.commit.refs                         167288                       # Number of memory references committed
system.cpu.commit.swp_count                         0                       # Number of s/w prefetches committed
system.cpu.commit.vec_insts                       699                       # Number of committed Vector instructions.
system.cpu.committedInsts                     1000000                       # Number of Instructions Simulated
system.cpu.committedOps                       1075135                       # Number of Ops (including micro ops) Simulated
system.cpu.cpi                               2.002444                       # CPI: Cycles Per Instruction
system.cpu.cpi_total                         2.002444                       # CPI: Total CPI of All Threads
system.cpu.decode.BlockedCycles                711888                       # Number of cycles decode is blocked
system.cpu.decode.BranchMispred                  3215                       # Number of times decode detected a branch misprediction
system.cpu.decode.BranchResolved               180472                       # Number of times decode resolved a branch
system.cpu.decode.DecodedInsts                3340454                       # Number of instructions handled by decode
system.cpu.decode.IdleCycles                   504105                       # Number of cycles decode is idle
system.cpu.decode.RunCycles                    560527                       # Number of cycles decode is running
system.cpu.decode.SquashCycles                  84278                       # Number of cycles decode is squashing
system.cpu.decode.SquashedInsts                  7427                       # Number of squashed instructions handled by decode
system.cpu.decode.UnblockCycles                 40537                       # Number of cycles decode is unblocking
system.cpu.dtb.accesses                             0                       # DTB accesses
system.cpu.dtb.align_faults                         0                       # Number of TLB faults due to alignment restrictions
system.cpu.dtb.domain_faults                        0                       # Number of TLB faults due to domain restrictions
system.cpu.dtb.flush_entries                        0                       # Number of entries that have been flushed from TLB
system.cpu.dtb.flush_tlb                            0                       # Number of times complete TLB was flushed
system.cpu.dtb.flush_tlb_asid                       0                       # Number of times TLB was flushed by ASID
system.cpu.dtb.flush_tlb_mva                        0                       # Number of times TLB was flushed by MVA
system.cpu.dtb.flush_tlb_mva_asid                   0                       # Number of times TLB was flushed by MVA & ASID
system.cpu.dtb.hits                                 0                       # DTB hits
system.cpu.dtb.inst_accesses                        0                       # ITB inst accesses
system.cpu.dtb.inst_hits                            0                       # ITB inst hits
system.cpu.dtb.inst_misses                          0                       # ITB inst misses
system.cpu.dtb.misses                               0                       # DTB misses
system.cpu.dtb.perms_faults                         0                       # Number of TLB faults due to permissions restrictions
system.cpu.dtb.prefetch_faults                      0                       # Number of TLB faults due to prefetch
system.cpu.dtb.read_accesses                        0                       # DTB read accesses
system.cpu.dtb.read_hits                            0                       # DTB read hits
system.cpu.dtb.read_misses                          0                       # DTB read misses
system.cpu.dtb.stage2_mmu.stage2_tlb.accesses            0                       # DTB accesses
system.cpu.dtb.stage2_mmu.stage2_tlb.align_faults            0                       # Number of TLB faults due to alignment restrictions
system.cpu.dtb.stage2_mmu.stage2_tlb.domain_faults            0                       # Number of TLB faults due to domain restrictions
system.cpu.dtb.stage2_mmu.stage2_tlb.flush_entries            0                       # Number of entries that have been flushed from TLB
system.cpu.dtb.stage2_mmu.stage2_tlb.flush_tlb            0                       # Number of times complete TLB was flushed
system.cpu.dtb.stage2_mmu.stage2_tlb.flush_tlb_asid            0                       # Number of times TLB was flushed by ASID
system.cpu.dtb.stage2_mmu.stage2_tlb.flush_tlb_mva            0                       # Number of times TLB was flushed by MVA
system.cpu.dtb.stage2_mmu.stage2_tlb.flush_tlb_mva_asid            0                       # Number of times TLB was flushed by MVA & ASID
system.cpu.dtb.stage2_mmu.stage2_tlb.hits            0                       # DTB hits
system.cpu.dtb.stage2_mmu.stage2_tlb.inst_accesses            0                       # ITB inst accesses
system.cpu.dtb.stage2_mmu.stage2_tlb.inst_hits            0                       # ITB inst hits
system.cpu.dtb.stage2_mmu.stage2_tlb.inst_misses            0                       # ITB inst misses
system.cpu.dtb.stage2_mmu.stage2_tlb.misses            0                       # DTB misses
system.cpu.dtb.stage2_mmu.stage2_tlb.perms_faults            0                       # Number of TLB faults due to permissions restrictions
system.cpu.dtb.stage2_mmu.stage2_tlb.prefetch_faults            0                       # Number of TLB faults due to prefetch
system.cpu.dtb.stage2_mmu.stage2_tlb.read_accesses            0                       # DTB read accesses
system.cpu.dtb.stage2_mmu.stage2_tlb.read_hits            0                       # DTB read hits
system.cpu.dtb.stage2_mmu.stage2_tlb.read_misses            0                       # DTB read misses
system.cpu.dtb.stage2_mmu.stage2_tlb.walker.walkRequestOrigin_Requested::Data            0                       # Table walker requests started/completed, data/inst
system.cpu.dtb.stage2_mmu.stage2_tlb.walker.walkRequestOrigin_Requested::Inst            0                       # Table walker requests started/completed, data/inst
system.cpu.dtb.stage2_mmu.stage2_tlb.walker.walkRequestOrigin_Requested::total            0                       # Table walker requests started/completed, data/inst
system.cpu.dtb.stage2_mmu.stage2_tlb.walker.walkRequestOrigin_Completed::Data            0                       # Table walker requests started/completed, data/inst
system.cpu.dtb.stage2_mmu.stage2_tlb.walker.walkRequestOrigin_Completed::Inst            0                       # Table walker requests started/completed, data/inst
system.cpu.dtb.stage2_mmu.stage2_tlb.walker.walkRequestOrigin_Completed::total            0                       # Table walker requests started/completed, data/inst
system.cpu.dtb.stage2_mmu.stage2_tlb.walker.walkRequestOrigin::total            0                       # Table walker requests started/completed, data/inst
system.cpu.dtb.stage2_mmu.stage2_tlb.walker.walks            0                       # Table walker walks requested
system.cpu.dtb.stage2_mmu.stage2_tlb.write_accesses            0                       # DTB write accesses
system.cpu.dtb.stage2_mmu.stage2_tlb.write_hits            0                       # DTB write hits
system.cpu.dtb.stage2_mmu.stage2_tlb.write_misses            0                       # DTB write misses
system.cpu.dtb.walker.walkRequestOrigin_Requested::Data            0                       # Table walker requests started/completed, data/inst
system.cpu.dtb.walker.walkRequestOrigin_Requested::Inst            0                       # Table walker requests started/completed, data/inst
system.cpu.dtb.walker.walkRequestOrigin_Requested::total            0                       # Table walker requests started/completed, data/inst
system.cpu.dtb.walker.walkRequestOrigin_Completed::Data            0                       # Table walker requests started/completed, data/inst
system.cpu.dtb.walker.walkRequestOrigin_Completed::Inst            0                       # Table walker requests started/completed, data/inst
system.cpu.dtb.walker.walkRequestOrigin_Completed::total            0                       # Table walker requests started/completed, data/inst
system.cpu.dtb.walker.walkRequestOrigin::total            0                       # Table walker requests started/completed, data/inst
system.cpu.dtb.walker.walks                         0                       # Table walker walks requested
system.cpu.dtb.write_accesses                       0                       # DTB write accesses
system.cpu.dtb.write_hits                           0                       # DTB write hits
system.cpu.dtb.write_misses                         0                       # DTB write misses
system.cpu.fetch.Branches                      837999                       # Number of branches that fetch encountered
system.cpu.fetch.CacheLines                    530961                       # Number of cache lines fetched
system.cpu.fetch.Cycles                       1191679                       # Number of cycles fetch has run and was not squashing or blocked
system.cpu.fetch.IcacheSquashes                 31722                       # Number of outstanding Icache misses that were squashed
system.cpu.fetch.IcacheWaitRetryStallCycles           43                       # Number of stall cycles due to full MSHR
system.cpu.fetch.Insts                        3299481                       # Number of instructions fetch has processed
system.cpu.fetch.MiscStallCycles                  226                       # Number of cycles fetch has spent waiting on interrupts, or bad addresses, or out of MSHRs
system.cpu.fetch.SquashCycles                  171924                       # Number of cycles fetch has spent squashing
system.cpu.fetch.branchRate                  0.418488                       # Number of branch fetches per cycle
system.cpu.fetch.icacheStallCycles             623425                       # Number of cycles fetch is stalled on an Icache miss
system.cpu.fetch.predictedBranches             297321                       # Number of branches that fetch has predicted taken
system.cpu.fetch.rate                        1.647727                       # Number of inst fetches per cycle
system.cpu.fetch.rateDist::samples            1901335                       # Number of instructions fetched each cycle (Total)
system.cpu.fetch.rateDist::mean              2.001423                       # Number of instructions fetched each cycle (Total)
system.cpu.fetch.rateDist::stdev             3.064017                       # Number of instructions fetched each cycle (Total)
system.cpu.fetch.rateDist::underflows               0      0.00%      0.00% # Number of instructions fetched each cycle (Total)
system.cpu.fetch.rateDist::0                  1193328     62.76%     62.76% # Number of instructions fetched each cycle (Total)
system.cpu.fetch.rateDist::1                    70417      3.70%     66.47% # Number of instructions fetched each cycle (Total)
system.cpu.fetch.rateDist::2                   105488      5.55%     72.01% # Number of instructions fetched each cycle (Total)
system.cpu.fetch.rateDist::3                    31723      1.67%     73.68% # Number of instructions fetched each cycle (Total)
system.cpu.fetch.rateDist::4                    71123      3.74%     77.42% # Number of instructions fetched each cycle (Total)
system.cpu.fetch.rateDist::5                    56892      2.99%     80.42% # Number of instructions fetched each cycle (Total)
system.cpu.fetch.rateDist::6                    41292      2.17%     82.59% # Number of instructions fetched each cycle (Total)
system.cpu.fetch.rateDist::7                    36466      1.92%     84.51% # Number of instructions fetched each cycle (Total)
system.cpu.fetch.rateDist::8                   294606     15.49%    100.00% # Number of instructions fetched each cycle (Total)
system.cpu.fetch.rateDist::overflows                0      0.00%    100.00% # Number of instructions fetched each cycle (Total)
system.cpu.fetch.rateDist::min_value                0                       # Number of instructions fetched each cycle (Total)
system.cpu.fetch.rateDist::max_value                8                       # Number of instructions fetched each cycle (Total)
system.cpu.fetch.rateDist::total              1901335                       # Number of instructions fetched each cycle (Total)
system.cpu.idleCycles                          101109                       # Total number of cycles that the CPU has spent unscheduled due to idling
system.cpu.iew.branchMispredicts                90894                       # Number of branch mispredicts detected at execute
system.cpu.iew.exec_branches                   413012                       # Number of branches executed
system.cpu.iew.exec_nop                          8671                       # number of nop insts executed
system.cpu.iew.exec_rate                     0.965685                       # Inst execution rate
system.cpu.iew.exec_refs                       405617                       # number of memory reference insts executed
system.cpu.iew.exec_stores                     137549                       # Number of stores executed
system.cpu.iew.exec_swp                             0                       # number of swp insts executed
system.cpu.iew.iewBlockCycles                  213429                       # Number of cycles IEW is blocking
system.cpu.iew.iewDispLoadInsts                356819                       # Number of dispatched load instructions
system.cpu.iew.iewDispNonSpecInsts                769                       # Number of dispatched non-speculative instructions
system.cpu.iew.iewDispSquashedInsts             62518                       # Number of squashed instructions skipped by dispatch
system.cpu.iew.iewDispStoreInsts               196448                       # Number of dispatched store instructions
system.cpu.iew.iewDispatchedInsts             2560913                       # Number of instructions dispatched to IQ
system.cpu.iew.iewExecLoadInsts                268068                       # Number of load instructions executed
system.cpu.iew.iewExecSquashedInsts            145965                       # Number of squashed instructions skipped in execute
system.cpu.iew.iewExecutedInsts               1933730                       # Number of executed instructions
system.cpu.iew.iewIQFullEvents                   1096                       # Number of times the IQ has become full, causing a stall
system.cpu.iew.iewIdleCycles                        0                       # Number of cycles IEW is idle
system.cpu.iew.iewLSQFullEvents                   943                       # Number of times the LSQ has become full, causing a stall
system.cpu.iew.iewSquashCycles                  84278                       # Number of cycles IEW is squashing
system.cpu.iew.iewUnblockCycles                  1980                       # Number of cycles IEW is unblocking
system.cpu.iew.lsq.thread0.blockedLoads             0                       # Number of blocked loads due to partial load-store forwarding
system.cpu.iew.lsq.thread0.cacheBlocked           189                       # Number of times an access to memory failed due to the cache being blocked
system.cpu.iew.lsq.thread0.forwLoads             5986                       # Number of loads that had data forwarded from stores
system.cpu.iew.lsq.thread0.ignoredResponses          272                       # Number of memory responses ignored because the instruction is squashed
system.cpu.iew.lsq.thread0.invAddrLoads             0                       # Number of loads ignored due to an invalid address
system.cpu.iew.lsq.thread0.invAddrSwpfs             0                       # Number of software prefetches ignored due to an invalid address
system.cpu.iew.lsq.thread0.memOrderViolation           30                       # Number of memory ordering violations
system.cpu.iew.lsq.thread0.rescheduledLoads         1220                       # Number of loads that were rescheduled
system.cpu.iew.lsq.thread0.squashedLoads       251973                       # Number of loads squashed
system.cpu.iew.lsq.thread0.squashedStores       134003                       # Number of stores squashed
system.cpu.iew.memOrderViolationEvents             30                       # Number of memory order violations
system.cpu.iew.predictedNotTakenIncorrect        85989                       # Number of branches that were predicted not taken incorrectly
system.cpu.iew.predictedTakenIncorrect           4905                       # Number of branches that were predicted taken incorrectly
system.cpu.iew.wb_consumers                   1792073                       # num instructions consuming a value
system.cpu.iew.wb_count                       1857024                       # cumulative count of insts written-back
system.cpu.iew.wb_fanout                     0.545036                       # average fanout of values written-back
system.cpu.iew.wb_producers                    976744                       # num instructions producing a value
system.cpu.iew.wb_rate                       0.927379                       # insts written-back per cycle
system.cpu.iew.wb_sent                        1879533                       # cumulative count of insts sent to commit
system.cpu.int_regfile_reads                  2143043                       # number of integer regfile reads
system.cpu.int_regfile_writes                 1453657                       # number of integer regfile writes
system.cpu.ipc                               0.499390                       # IPC: Instructions Per Cycle
system.cpu.ipc_total                         0.499390                       # IPC: Total IPC of All Threads
system.cpu.iq.FU_type_0::No_OpClass                16      0.00%      0.00% # Type of FU issued
system.cpu.iq.FU_type_0::IntAlu               1575084     75.74%     75.74% # Type of FU issued
system.cpu.iq.FU_type_0::IntMult                40489      1.95%     77.68% # Type of FU issued
system.cpu.iq.FU_type_0::IntDiv                    25      0.00%     77.69% # Type of FU issued
system.cpu.iq.FU_type_0::FloatAdd                   0      0.00%     77.69% # Type of FU issued
system.cpu.iq.FU_type_0::FloatCmp                   0      0.00%     77.69% # Type of FU issued
system.cpu.iq.FU_type_0::FloatCvt                   0      0.00%     77.69% # Type of FU issued
system.cpu.iq.FU_type_0::FloatMult                  0      0.00%     77.69% # Type of FU issued
system.cpu.iq.FU_type_0::FloatMultAcc               0      0.00%     77.69% # Type of FU issued
system.cpu.iq.FU_type_0::FloatDiv                   0      0.00%     77.69% # Type of FU issued
system.cpu.iq.FU_type_0::FloatMisc                  1      0.00%     77.69% # Type of FU issued
system.cpu.iq.FU_type_0::FloatSqrt                  0      0.00%     77.69% # Type of FU issued
system.cpu.iq.FU_type_0::SimdAdd                   52      0.00%     77.69% # Type of FU issued
system.cpu.iq.FU_type_0::SimdAddAcc                 0      0.00%     77.69% # Type of FU issued
system.cpu.iq.FU_type_0::SimdAlu                   70      0.00%     77.69% # Type of FU issued
system.cpu.iq.FU_type_0::SimdCmp                   65      0.00%     77.69% # Type of FU issued
system.cpu.iq.FU_type_0::SimdCvt                    0      0.00%     77.69% # Type of FU issued
system.cpu.iq.FU_type_0::SimdMisc                  70      0.00%     77.70% # Type of FU issued
system.cpu.iq.FU_type_0::SimdMult                   0      0.00%     77.70% # Type of FU issued
system.cpu.iq.FU_type_0::SimdMultAcc                0      0.00%     77.70% # Type of FU issued
system.cpu.iq.FU_type_0::SimdShift                  0      0.00%     77.70% # Type of FU issued
system.cpu.iq.FU_type_0::SimdShiftAcc               0      0.00%     77.70% # Type of FU issued
system.cpu.iq.FU_type_0::SimdDiv                    0      0.00%     77.70% # Type of FU issued
system.cpu.iq.FU_type_0::SimdSqrt                   0      0.00%     77.70% # Type of FU issued
system.cpu.iq.FU_type_0::SimdFloatAdd               0      0.00%     77.70% # Type of FU issued
system.cpu.iq.FU_type_0::SimdFloatAlu               0      0.00%     77.70% # Type of FU issued
system.cpu.iq.FU_type_0::SimdFloatCmp               0      0.00%     77.70% # Type of FU issued
system.cpu.iq.FU_type_0::SimdFloatCvt               0      0.00%     77.70% # Type of FU issued
system.cpu.iq.FU_type_0::SimdFloatDiv               0      0.00%     77.70% # Type of FU issued
system.cpu.iq.FU_type_0::SimdFloatMisc              0      0.00%     77.70% # Type of FU issued
system.cpu.iq.FU_type_0::SimdFloatMult              0      0.00%     77.70% # Type of FU issued
system.cpu.iq.FU_type_0::SimdFloatMultAcc            0      0.00%     77.70% # Type of FU issued
system.cpu.iq.FU_type_0::SimdFloatSqrt              0      0.00%     77.70% # Type of FU issued
system.cpu.iq.FU_type_0::SimdReduceAdd              0      0.00%     77.70% # Type of FU issued
system.cpu.iq.FU_type_0::SimdReduceAlu              0      0.00%     77.70% # Type of FU issued
system.cpu.iq.FU_type_0::SimdReduceCmp              0      0.00%     77.70% # Type of FU issued
system.cpu.iq.FU_type_0::SimdFloatReduceAdd            0      0.00%     77.70% # Type of FU issued
system.cpu.iq.FU_type_0::SimdFloatReduceCmp            0      0.00%     77.70% # Type of FU issued
system.cpu.iq.FU_type_0::SimdAes                    0      0.00%     77.70% # Type of FU issued
system.cpu.iq.FU_type_0::SimdAesMix                 0      0.00%     77.70% # Type of FU issued
system.cpu.iq.FU_type_0::SimdSha1Hash               0      0.00%     77.70% # Type of FU issued
system.cpu.iq.FU_type_0::SimdSha1Hash2              0      0.00%     77.70% # Type of FU issued
system.cpu.iq.FU_type_0::SimdSha256Hash             0      0.00%     77.70% # Type of FU issued
system.cpu.iq.FU_type_0::SimdSha256Hash2            0      0.00%     77.70% # Type of FU issued
system.cpu.iq.FU_type_0::SimdShaSigma2              0      0.00%     77.70% # Type of FU issued
system.cpu.iq.FU_type_0::SimdShaSigma3              0      0.00%     77.70% # Type of FU issued
system.cpu.iq.FU_type_0::SimdPredAlu                0      0.00%     77.70% # Type of FU issued
system.cpu.iq.FU_type_0::MemRead               310316     14.92%     92.62% # Type of FU issued
system.cpu.iq.FU_type_0::MemWrite              153507      7.38%    100.00% # Type of FU issued
system.cpu.iq.FU_type_0::FloatMemRead               0      0.00%    100.00% # Type of FU issued
system.cpu.iq.FU_type_0::FloatMemWrite              0      0.00%    100.00% # Type of FU issued
system.cpu.iq.FU_type_0::IprAccess                  0      0.00%    100.00% # Type of FU issued
system.cpu.iq.FU_type_0::InstPrefetch               0      0.00%    100.00% # Type of FU issued
system.cpu.iq.FU_type_0::total                2079695                       # Type of FU issued
system.cpu.iq.fp_alu_accesses                       0                       # Number of floating point alu accesses
system.cpu.iq.fp_inst_queue_reads                   0                       # Number of floating instruction queue reads
system.cpu.iq.fp_inst_queue_wakeup_accesses            0                       # Number of floating instruction queue wakeup accesses
system.cpu.iq.fp_inst_queue_writes                  0                       # Number of floating instruction queue writes
system.cpu.iq.fu_busy_cnt                       21328                       # FU busy when requested
system.cpu.iq.fu_busy_rate                   0.010255                       # FU busy rate (busy events/executed inst)
system.cpu.iq.fu_full::No_OpClass                   0      0.00%      0.00% # attempts to use FU when none available
system.cpu.iq.fu_full::IntAlu                   10831     50.78%     50.78% # attempts to use FU when none available
system.cpu.iq.fu_full::IntMult                      0      0.00%     50.78% # attempts to use FU when none available
system.cpu.iq.fu_full::IntDiv                       0      0.00%     50.78% # attempts to use FU when none available
system.cpu.iq.fu_full::FloatAdd                     0      0.00%     50.78% # attempts to use FU when none available
system.cpu.iq.fu_full::FloatCmp                     0      0.00%     50.78% # attempts to use FU when none available
system.cpu.iq.fu_full::FloatCvt                     0      0.00%     50.78% # attempts to use FU when none available
system.cpu.iq.fu_full::FloatMult                    0      0.00%     50.78% # attempts to use FU when none available
system.cpu.iq.fu_full::FloatMultAcc                 0      0.00%     50.78% # attempts to use FU when none available
system.cpu.iq.fu_full::FloatDiv                     0      0.00%     50.78% # attempts to use FU when none available
system.cpu.iq.fu_full::FloatMisc                    0      0.00%     50.78% # attempts to use FU when none available
system.cpu.iq.fu_full::FloatSqrt                    0      0.00%     50.78% # attempts to use FU when none available
system.cpu.iq.fu_full::SimdAdd                      0      0.00%     50.78% # attempts to use FU when none available
system.cpu.iq.fu_full::SimdAddAcc                   0      0.00%     50.78% # attempts to use FU when none available
system.cpu.iq.fu_full::SimdAlu                      3      0.01%     50.80% # attempts to use FU when none available
system.cpu.iq.fu_full::SimdCmp                      4      0.02%     50.82% # attempts to use FU when none available
system.cpu.iq.fu_full::SimdCvt                      0      0.00%     50.82% # attempts to use FU when none available
system.cpu.iq.fu_full::SimdMisc                     0      0.00%     50.82% # attempts to use FU when none available
system.cpu.iq.fu_full::SimdMult                     0      0.00%     50.82% # attempts to use FU when none available
system.cpu.iq.fu_full::SimdMultAcc                  0      0.00%     50.82% # attempts to use FU when none available
system.cpu.iq.fu_full::SimdShift                    0      0.00%     50.82% # attempts to use FU when none available
system.cpu.iq.fu_full::SimdShiftAcc                 0      0.00%     50.82% # attempts to use FU when none available
system.cpu.iq.fu_full::SimdDiv                      0      0.00%     50.82% # attempts to use FU when none available
system.cpu.iq.fu_full::SimdSqrt                     0      0.00%     50.82% # attempts to use FU when none available
system.cpu.iq.fu_full::SimdFloatAdd                 0      0.00%     50.82% # attempts to use FU when none available
system.cpu.iq.fu_full::SimdFloatAlu                 0      0.00%     50.82% # attempts to use FU when none available
system.cpu.iq.fu_full::SimdFloatCmp                 0      0.00%     50.82% # attempts to use FU when none available
system.cpu.iq.fu_full::SimdFloatCvt                 0      0.00%     50.82% # attempts to use FU when none available
system.cpu.iq.fu_full::SimdFloatDiv                 0      0.00%     50.82% # attempts to use FU when none available
system.cpu.iq.fu_full::SimdFloatMisc                0      0.00%     50.82% # attempts to use FU when none available
system.cpu.iq.fu_full::SimdFloatMult                0      0.00%     50.82% # attempts to use FU when none available
system.cpu.iq.fu_full::SimdFloatMultAcc             0      0.00%     50.82% # attempts to use FU when none available
system.cpu.iq.fu_full::SimdFloatSqrt                0      0.00%     50.82% # attempts to use FU when none available
system.cpu.iq.fu_full::SimdReduceAdd                0      0.00%     50.82% # attempts to use FU when none available
system.cpu.iq.fu_full::SimdReduceAlu                0      0.00%     50.82% # attempts to use FU when none available
system.cpu.iq.fu_full::SimdReduceCmp                0      0.00%     50.82% # attempts to use FU when none available
system.cpu.iq.fu_full::SimdFloatReduceAdd            0      0.00%     50.82% # attempts to use FU when none available
system.cpu.iq.fu_full::SimdFloatReduceCmp            0      0.00%     50.82% # attempts to use FU when none available
system.cpu.iq.fu_full::SimdAes                      0      0.00%     50.82% # attempts to use FU when none available
system.cpu.iq.fu_full::SimdAesMix                   0      0.00%     50.82% # attempts to use FU when none available
system.cpu.iq.fu_full::SimdSha1Hash                 0      0.00%     50.82% # attempts to use FU when none available
system.cpu.iq.fu_full::SimdSha1Hash2                0      0.00%     50.82% # attempts to use FU when none available
system.cpu.iq.fu_full::SimdSha256Hash               0      0.00%     50.82% # attempts to use FU when none available
system.cpu.iq.fu_full::SimdSha256Hash2              0      0.00%     50.82% # attempts to use FU when none available
system.cpu.iq.fu_full::SimdShaSigma2                0      0.00%     50.82% # attempts to use FU when none available
system.cpu.iq.fu_full::SimdShaSigma3                0      0.00%     50.82% # attempts to use FU when none available
system.cpu.iq.fu_full::SimdPredAlu                  0      0.00%     50.82% # attempts to use FU when none available
system.cpu.iq.fu_full::MemRead                   8615     40.39%     91.21% # attempts to use FU when none available
system.cpu.iq.fu_full::MemWrite                  1875      8.79%    100.00% # attempts to use FU when none available
system.cpu.iq.fu_full::FloatMemRead                 0      0.00%    100.00% # attempts to use FU when none available
system.cpu.iq.fu_full::FloatMemWrite                0      0.00%    100.00% # attempts to use FU when none available
system.cpu.iq.fu_full::IprAccess                    0      0.00%    100.00% # attempts to use FU when none available
system.cpu.iq.fu_full::InstPrefetch                 0      0.00%    100.00% # attempts to use FU when none available
system.cpu.iq.int_alu_accesses                2098797                       # Number of integer alu accesses
system.cpu.iq.int_inst_queue_reads            6081681                       # Number of integer instruction queue reads
system.cpu.iq.int_inst_queue_wakeup_accesses      1855639                       # Number of integer instruction queue wakeup accesses
system.cpu.iq.int_inst_queue_writes           4024114                       # Number of integer instruction queue writes
system.cpu.iq.iqInstsAdded                    2551473                       # Number of instructions added to the IQ (excludes non-spec)
system.cpu.iq.iqInstsIssued                   2079695                       # Number of instructions issued
system.cpu.iq.iqNonSpecInstsAdded                 769                       # Number of non-speculative instructions added to the IQ
system.cpu.iq.iqSquashedInstsExamined         1477101                       # Number of squashed instructions iterated over during squash; mainly for profiling
system.cpu.iq.iqSquashedInstsIssued              4469                       # Number of squashed instructions issued
system.cpu.iq.iqSquashedNonSpecRemoved            229                       # Number of squashed non-spec instructions that were removed
system.cpu.iq.iqSquashedOperandsExamined      1032670                       # Number of squashed operands that are examined and possibly removed from graph
system.cpu.iq.issued_per_cycle::samples       1901335                       # Number of insts issued each cycle
system.cpu.iq.issued_per_cycle::mean         1.093808                       # Number of insts issued each cycle
system.cpu.iq.issued_per_cycle::stdev        1.865472                       # Number of insts issued each cycle
system.cpu.iq.issued_per_cycle::underflows            0      0.00%      0.00% # Number of insts issued each cycle
system.cpu.iq.issued_per_cycle::0             1230304     64.71%     64.71% # Number of insts issued each cycle
system.cpu.iq.issued_per_cycle::1              164961      8.68%     73.38% # Number of insts issued each cycle
system.cpu.iq.issued_per_cycle::2              157774      8.30%     81.68% # Number of insts issued each cycle
system.cpu.iq.issued_per_cycle::3               96131      5.06%     86.74% # Number of insts issued each cycle
system.cpu.iq.issued_per_cycle::4              102634      5.40%     92.14% # Number of insts issued each cycle
system.cpu.iq.issued_per_cycle::5               62500      3.29%     95.42% # Number of insts issued each cycle
system.cpu.iq.issued_per_cycle::6               41451      2.18%     97.60% # Number of insts issued each cycle
system.cpu.iq.issued_per_cycle::7               25589      1.35%     98.95% # Number of insts issued each cycle
system.cpu.iq.issued_per_cycle::8               19991      1.05%    100.00% # Number of insts issued each cycle
system.cpu.iq.issued_per_cycle::overflows            0      0.00%    100.00% # Number of insts issued each cycle
system.cpu.iq.issued_per_cycle::min_value            0                       # Number of insts issued each cycle
system.cpu.iq.issued_per_cycle::max_value            8                       # Number of insts issued each cycle
system.cpu.iq.issued_per_cycle::total         1901335                       # Number of insts issued each cycle
system.cpu.iq.rate                           1.038578                       # Inst issue rate
system.cpu.iq.vec_alu_accesses                   2210                       # Number of vector alu accesses
system.cpu.iq.vec_inst_queue_reads               4841                       # Number of vector instruction queue reads
system.cpu.iq.vec_inst_queue_wakeup_accesses         1385                       # Number of vector instruction queue wakeup accesses
system.cpu.iq.vec_inst_queue_writes              5259                       # Number of vector instruction queue writes
system.cpu.itb.accesses                             0                       # DTB accesses
system.cpu.itb.align_faults                         0                       # Number of TLB faults due to alignment restrictions
system.cpu.itb.domain_faults                        0                       # Number of TLB faults due to domain restrictions
system.cpu.itb.flush_entries                        0                       # Number of entries that have been flushed from TLB
system.cpu.itb.flush_tlb                            0                       # Number of times complete TLB was flushed
system.cpu.itb.flush_tlb_asid                       0                       # Number of times TLB was flushed by ASID
system.cpu.itb.flush_tlb_mva                        0                       # Number of times TLB was flushed by MVA
system.cpu.itb.flush_tlb_mva_asid                   0                       # Number of times TLB was flushed by MVA & ASID
system.cpu.itb.hits                                 0                       # DTB hits
system.cpu.itb.inst_accesses                        0                       # ITB inst accesses
system.cpu.itb.inst_hits                            0                       # ITB inst hits
system.cpu.itb.inst_misses                          0                       # ITB inst misses
system.cpu.itb.misses                               0                       # DTB misses
system.cpu.itb.perms_faults                         0                       # Number of TLB faults due to permissions restrictions
system.cpu.itb.prefetch_faults                      0                       # Number of TLB faults due to prefetch
system.cpu.itb.read_accesses                        0                       # DTB read accesses
system.cpu.itb.read_hits                            0                       # DTB read hits
system.cpu.itb.read_misses                          0                       # DTB read misses
system.cpu.itb.stage2_mmu.stage2_tlb.accesses            0                       # DTB accesses
system.cpu.itb.stage2_mmu.stage2_tlb.align_faults            0                       # Number of TLB faults due to alignment restrictions
system.cpu.itb.stage2_mmu.stage2_tlb.domain_faults            0                       # Number of TLB faults due to domain restrictions
system.cpu.itb.stage2_mmu.stage2_tlb.flush_entries            0                       # Number of entries that have been flushed from TLB
system.cpu.itb.stage2_mmu.stage2_tlb.flush_tlb            0                       # Number of times complete TLB was flushed
system.cpu.itb.stage2_mmu.stage2_tlb.flush_tlb_asid            0                       # Number of times TLB was flushed by ASID
system.cpu.itb.stage2_mmu.stage2_tlb.flush_tlb_mva            0                       # Number of times TLB was flushed by MVA
system.cpu.itb.stage2_mmu.stage2_tlb.flush_tlb_mva_asid            0                       # Number of times TLB was flushed by MVA & ASID
system.cpu.itb.stage2_mmu.stage2_tlb.hits            0                       # DTB hits
system.cpu.itb.stage2_mmu.stage2_tlb.inst_accesses            0                       # ITB inst accesses
system.cpu.itb.stage2_mmu.stage2_tlb.inst_hits            0                       # ITB inst hits
system.cpu.itb.stage2_mmu.stage2_tlb.inst_misses            0                       # ITB inst misses
system.cpu.itb.stage2_mmu.stage2_tlb.misses            0                       # DTB misses
system.cpu.itb.stage2_mmu.stage2_tlb.perms_faults            0                       # Number of TLB faults due to permissions restrictions
system.cpu.itb.stage2_mmu.stage2_tlb.prefetch_faults            0                       # Number of TLB faults due to prefetch
system.cpu.itb.stage2_mmu.stage2_tlb.read_accesses            0                       # DTB read accesses
system.cpu.itb.stage2_mmu.stage2_tlb.read_hits            0                       # DTB read hits
system.cpu.itb.stage2_mmu.stage2_tlb.read_misses            0                       # DTB read misses
system.cpu.itb.stage2_mmu.stage2_tlb.walker.walkRequestOrigin_Requested::Data            0                       # Table walker requests started/completed, data/inst
system.cpu.itb.stage2_mmu.stage2_tlb.walker.walkRequestOrigin_Requested::Inst            0                       # Table walker requests started/completed, data/inst
system.cpu.itb.stage2_mmu.stage2_tlb.walker.walkRequestOrigin_Requested::total            0                       # Table walker requests started/completed, data/inst
system.cpu.itb.stage2_mmu.stage2_tlb.walker.walkRequestOrigin_Completed::Data            0                       # Table walker requests started/completed, data/inst
system.cpu.itb.stage2_mmu.stage2_tlb.walker.walkRequestOrigin_Completed::Inst            0                       # Table walker requests started/completed, data/inst
system.cpu.itb.stage2_mmu.stage2_tlb.walker.walkRequestOrigin_Completed::total            0                       # Table walker requests started/completed, data/inst
system.cpu.itb.stage2_mmu.stage2_tlb.walker.walkRequestOrigin::total            0                       # Table walker requests started/completed, data/inst
system.cpu.itb.stage2_mmu.stage2_tlb.walker.walks            0                       # Table walker walks requested
system.cpu.itb.stage2_mmu.stage2_tlb.write_accesses            0                       # DTB write accesses
system.cpu.itb.stage2_mmu.stage2_tlb.write_hits            0                       # DTB write hits
system.cpu.itb.stage2_mmu.stage2_tlb.write_misses            0                       # DTB write misses
system.cpu.itb.walker.walkRequestOrigin_Requested::Data            0                       # Table walker requests started/completed, data/inst
system.cpu.itb.walker.walkRequestOrigin_Requested::Inst            0                       # Table walker requests started/completed, data/inst
system.cpu.itb.walker.walkRequestOrigin_Requested::total            0                       # Table walker requests started/completed, data/inst
system.cpu.itb.walker.walkRequestOrigin_Completed::Data            0                       # Table walker requests started/completed, data/inst
system.cpu.itb.walker.walkRequestOrigin_Completed::Inst            0                       # Table walker requests started/completed, data/inst
system.cpu.itb.walker.walkRequestOrigin_Completed::total            0                       # Table walker requests started/completed, data/inst
system.cpu.itb.walker.walkRequestOrigin::total            0                       # Table walker requests started/completed, data/inst
system.cpu.itb.walker.walks                         0                       # Table walker walks requested
system.cpu.itb.write_accesses                       0                       # DTB write accesses
system.cpu.itb.write_hits                           0                       # DTB write hits
system.cpu.itb.write_misses                         0                       # DTB write misses
system.cpu.memDep0.conflictingLoads              1481                       # Number of conflicting loads.
system.cpu.memDep0.conflictingStores              837                       # Number of conflicting stores.
system.cpu.memDep0.insertedLoads               356819                       # Number of loads inserted to the mem dependence unit.
system.cpu.memDep0.insertedStores              196448                       # Number of stores inserted to the mem dependence unit.
system.cpu.misc_regfile_reads                 1505758                       # number of misc regfile reads
system.cpu.misc_regfile_writes                   2121                       # number of misc regfile writes
system.cpu.numCycles                          2002444                       # number of cpu cycles simulated
system.cpu.numWorkItemsCompleted                    0                       # number of work items this cpu completed
system.cpu.numWorkItemsStarted                      0                       # number of work items this cpu started
system.cpu.rename.BlockCycles                  213958                       # Number of cycles rename is blocking
system.cpu.rename.CommittedMaps               1228039                       # Number of HB maps that are committed
system.cpu.rename.IQFullEvents                   1929                       # Number of times rename has blocked due to IQ full
system.cpu.rename.IdleCycles                   558657                       # Number of cycles rename is idle
system.cpu.rename.LQFullEvents                    429                       # Number of times rename has blocked due to LQ full
system.cpu.rename.ROBFullEvents                   391                       # Number of times rename has blocked due to ROB full
system.cpu.rename.RenameLookups               4444855                       # Number of register rename lookups that rename has made
system.cpu.rename.RenamedInsts                3014883                       # Number of instructions processed by rename
system.cpu.rename.RenamedOperands             3244583                       # Number of destination operands rename has renamed
system.cpu.rename.RunCycles                    544227                       # Number of cycles rename is running
system.cpu.rename.SQFullEvents                   2294                       # Number of times rename has blocked due to SQ full
system.cpu.rename.SquashCycles                  84278                       # Number of cycles rename is squashing
system.cpu.rename.UnblockCycles                  9156                       # Number of cycles rename is unblocking
system.cpu.rename.UndoneMaps                  2016538                       # Number of HB maps that are undone due to squashing
system.cpu.rename.int_rename_lookups          3292577                       # Number of integer rename lookups
system.cpu.rename.serializeStallCycles         491059                       # count of cycles rename stalled for serializing inst
system.cpu.rename.serializingInsts               9563                       # count of serializing insts renamed
system.cpu.rename.skidInsts                     59275                       # count of insts added to the skid buffer
system.cpu.rename.tempSerializingInsts            775                       # count of temporary serializing insts renamed
system.cpu.rename.vec_rename_lookups             3336                       # Number of vector rename lookups
system.cpu.rob.rob_reads                      4187772                       # The number of ROB reads
system.cpu.rob.rob_writes                     5379196                       # The number of ROB writes
system.cpu.timesIdled                            1347                       # Number of times that the entire CPU went into an idle state and unscheduled itself
system.cpu.vec_regfile_reads                     1508                       # number of vector regfile reads
system.cpu.vec_regfile_writes                     284                       # number of vector regfile writes
system.cpu.workload.numSyscalls                     9                       # Number of system calls
system.membus.snoop_filter.hit_multi_requests            0                       # Number of requests hitting in the snoop filter with multiple (>1) holders of the requested data.
system.membus.snoop_filter.hit_multi_snoops            0                       # Number of snoops hitting in the snoop filter with multiple (>1) holders of the requested data.
system.membus.snoop_filter.hit_single_requests            0                       # Number of requests hitting in the snoop filter with a single holder of the requested data.
system.membus.snoop_filter.hit_single_snoops            0                       # Number of snoops hitting in the snoop filter with a single holder of the requested data.
system.membus.snoop_filter.tot_requests          6881                       # Total number of requests made to the snoop filter.
system.membus.snoop_filter.tot_snoops               0                       # Total number of snoops made to the snoop filter.
system.tol2bus.snoop_filter.hit_multi_requests            1                       # Number of requests hitting in the snoop filter with multiple (>1) holders of the requested data.
system.tol2bus.snoop_filter.hit_multi_snoops            0                       # Number of snoops hitting in the snoop filter with multiple (>1) holders of the requested data.
system.tol2bus.snoop_filter.hit_single_requests         7600                       # Number of requests hitting in the snoop filter with a single holder of the requested data.
system.tol2bus.snoop_filter.hit_single_snoops            0                       # Number of snoops hitting in the snoop filter with a single holder of the requested data.
system.tol2bus.snoop_filter.tot_requests        16482                       # Total number of requests made to the snoop filter.
system.tol2bus.snoop_filter.tot_snoops              0                       # Total number of snoops made to the snoop filter.
system.membus.trans_dist::ReadResp               5703                       # Transaction distribution
system.membus.trans_dist::ReadExReq              1032                       # Transaction distribution
system.membus.trans_dist::ReadExResp             1031                       # Transaction distribution
system.membus.trans_dist::ReadSharedReq          5703                       # Transaction distribution
system.membus.trans_dist::InvalidateReq           146                       # Transaction distribution
system.membus.pkt_count_system.l2.mem_side::system.mem_ctrls.port        13615                       # Packet count per connected master and slave (bytes)
system.membus.pkt_count::total                  13615                       # Packet count per connected master and slave (bytes)
system.membus.pkt_size_system.l2.mem_side::system.mem_ctrls.port       430976                       # Cumulative packet size per connected master and slave (bytes)
system.membus.pkt_size::total                  430976                       # Cumulative packet size per connected master and slave (bytes)
system.membus.snoops                                0                       # Total snoops (count)
system.membus.snoopTraffic                          0                       # Total snoop traffic (bytes)
system.membus.snoop_fanout::samples              6881                       # Request fanout histogram
system.membus.snoop_fanout::mean                    0                       # Request fanout histogram
system.membus.snoop_fanout::stdev                   0                       # Request fanout histogram
system.membus.snoop_fanout::underflows              0      0.00%      0.00% # Request fanout histogram
system.membus.snoop_fanout::0                    6881    100.00%    100.00% # Request fanout histogram
system.membus.snoop_fanout::1                       0      0.00%    100.00% # Request fanout histogram
system.membus.snoop_fanout::overflows               0      0.00%    100.00% # Request fanout histogram
system.membus.snoop_fanout::min_value               0                       # Request fanout histogram
system.membus.snoop_fanout::max_value               0                       # Request fanout histogram
system.membus.snoop_fanout::total                6881                       # Request fanout histogram
system.membus.reqLayer0.occupancy             8706500                       # Layer occupancy (ticks)
system.membus.reqLayer0.utilization               0.9                       # Layer utilization (%)
system.membus.respLayer1.occupancy           35551250                       # Layer occupancy (ticks)
system.membus.respLayer1.utilization              3.6                       # Layer utilization (%)
system.membus.power_state.pwrStateResidencyTicks::UNDEFINED   1001221500                       # Cumulative time (in ticks) in various power states
system.tol2bus.trans_dist::ReadResp              7698                       # Transaction distribution
system.tol2bus.trans_dist::WritebackDirty         1121                       # Transaction distribution
system.tol2bus.trans_dist::WritebackClean         2465                       # Transaction distribution
system.tol2bus.trans_dist::CleanEvict            4014                       # Transaction distribution
system.tol2bus.trans_dist::ReadExReq             1036                       # Transaction distribution
system.tol2bus.trans_dist::ReadExResp            1035                       # Transaction distribution
system.tol2bus.trans_dist::ReadCleanReq          2721                       # Transaction distribution
system.tol2bus.trans_dist::ReadSharedReq         4978                       # Transaction distribution
system.tol2bus.trans_dist::InvalidateReq          147                       # Transaction distribution
system.tol2bus.trans_dist::InvalidateResp          147                       # Transaction distribution
system.tol2bus.pkt_count_system.cpu.icache.mem_side::system.l2.cpu_side         7907                       # Packet count per connected master and slave (bytes)
system.tol2bus.pkt_count_system.cpu.dcache.mem_side::system.l2.cpu_side        17455                       # Packet count per connected master and slave (bytes)
system.tol2bus.pkt_count::total                 25362                       # Packet count per connected master and slave (bytes)
system.tol2bus.pkt_size_system.cpu.icache.mem_side::system.l2.cpu_side       331904                       # Cumulative packet size per connected master and slave (bytes)
system.tol2bus.pkt_size_system.cpu.dcache.mem_side::system.l2.cpu_side       456512                       # Cumulative packet size per connected master and slave (bytes)
system.tol2bus.pkt_size::total                 788416                       # Cumulative packet size per connected master and slave (bytes)
system.tol2bus.snoops                               0                       # Total snoops (count)
system.tol2bus.snoopTraffic                         0                       # Total snoop traffic (bytes)
system.tol2bus.snoop_fanout::samples             8882                       # Request fanout histogram
system.tol2bus.snoop_fanout::mean            0.000113                       # Request fanout histogram
system.tol2bus.snoop_fanout::stdev           0.010611                       # Request fanout histogram
system.tol2bus.snoop_fanout::underflows             0      0.00%      0.00% # Request fanout histogram
system.tol2bus.snoop_fanout::0                   8881     99.99%     99.99% # Request fanout histogram
system.tol2bus.snoop_fanout::1                      1      0.01%    100.00% # Request fanout histogram
system.tol2bus.snoop_fanout::2                      0      0.00%    100.00% # Request fanout histogram
system.tol2bus.snoop_fanout::overflows              0      0.00%    100.00% # Request fanout histogram
system.tol2bus.snoop_fanout::min_value              0                       # Request fanout histogram
system.tol2bus.snoop_fanout::max_value              1                       # Request fanout histogram
system.tol2bus.snoop_fanout::total               8882                       # Request fanout histogram
system.tol2bus.reqLayer0.occupancy           11827000                       # Layer occupancy (ticks)
system.tol2bus.reqLayer0.utilization              1.2                       # Layer utilization (%)
system.tol2bus.respLayer1.occupancy           9091999                       # Layer occupancy (ticks)
system.tol2bus.respLayer1.utilization             0.9                       # Layer utilization (%)
system.tol2bus.respLayer0.occupancy           4081999                       # Layer occupancy (ticks)
system.tol2bus.respLayer0.utilization             0.4                       # Layer utilization (%)
system.tol2bus.power_state.pwrStateResidencyTicks::UNDEFINED   1001221500                       # Cumulative time (in ticks) in various power states
system.voltage_domain.voltage                       1                       # Voltage in Volts
system.clk_domain.clock                          1000                       # Clock period in ticks
system.l2.demand_hits::.cpu.inst                 1197                       # number of demand (read+write) hits
system.l2.demand_hits::.cpu.data                  803                       # number of demand (read+write) hits
system.l2.demand_hits::total                     2000                       # number of demand (read+write) hits
system.l2.overall_hits::.cpu.inst                1197                       # number of overall hits
system.l2.overall_hits::.cpu.data                 803                       # number of overall hits
system.l2.overall_hits::total                    2000                       # number of overall hits
system.l2.demand_misses::.cpu.inst               1524                       # number of demand (read+write) misses
system.l2.demand_misses::.cpu.data               5211                       # number of demand (read+write) misses
system.l2.demand_misses::total                   6735                       # number of demand (read+write) misses
system.l2.overall_misses::.cpu.inst              1524                       # number of overall misses
system.l2.overall_misses::.cpu.data              5211                       # number of overall misses
system.l2.overall_misses::total                  6735                       # number of overall misses
system.l2.demand_miss_latency::.cpu.inst    119522500                       # number of demand (read+write) miss cycles
system.l2.demand_miss_latency::.cpu.data    396673000                       # number of demand (read+write) miss cycles
system.l2.demand_miss_latency::total        516195500                       # number of demand (read+write) miss cycles
system.l2.overall_miss_latency::.cpu.inst    119522500                       # number of overall miss cycles
system.l2.overall_miss_latency::.cpu.data    396673000                       # number of overall miss cycles
system.l2.overall_miss_latency::total       516195500                       # number of overall miss cycles
system.l2.demand_accesses::.cpu.inst             2721                       # number of demand (read+write) accesses
system.l2.demand_accesses::.cpu.data             6014                       # number of demand (read+write) accesses
system.l2.demand_accesses::total                 8735                       # number of demand (read+write) accesses
system.l2.overall_accesses::.cpu.inst            2721                       # number of overall (read+write) accesses
system.l2.overall_accesses::.cpu.data            6014                       # number of overall (read+write) accesses
system.l2.overall_accesses::total                8735                       # number of overall (read+write) accesses
system.l2.demand_miss_rate::.cpu.inst        0.560088                       # miss rate for demand accesses
system.l2.demand_miss_rate::.cpu.data        0.866478                       # miss rate for demand accesses
system.l2.demand_miss_rate::total            0.771036                       # miss rate for demand accesses
system.l2.overall_miss_rate::.cpu.inst       0.560088                       # miss rate for overall accesses
system.l2.overall_miss_rate::.cpu.data       0.866478                       # miss rate for overall accesses
system.l2.overall_miss_rate::total           0.771036                       # miss rate for overall accesses
system.l2.demand_avg_miss_latency::.cpu.inst 78426.837270                       # average overall miss latency
system.l2.demand_avg_miss_latency::.cpu.data 76122.241412                       # average overall miss latency
system.l2.demand_avg_miss_latency::total 76643.726800                       # average overall miss latency
system.l2.overall_avg_miss_latency::.cpu.inst 78426.837270                       # average overall miss latency
system.l2.overall_avg_miss_latency::.cpu.data 76122.241412                       # average overall miss latency
system.l2.overall_avg_miss_latency::total 76643.726800                       # average overall miss latency
system.l2.blocked_cycles::no_mshrs                  0                       # number of cycles access was blocked
system.l2.blocked_cycles::no_targets                0                       # number of cycles access was blocked
system.l2.blocked::no_mshrs                         0                       # number of cycles access was blocked
system.l2.blocked::no_targets                       0                       # number of cycles access was blocked
system.l2.avg_blocked_cycles::no_mshrs            nan                       # average number of cycles each access was blocked
system.l2.avg_blocked_cycles::no_targets          nan                       # average number of cycles each access was blocked
system.l2.demand_mshr_misses::.cpu.inst          1524                       # number of demand (read+write) MSHR misses
system.l2.demand_mshr_misses::.cpu.data          5211                       # number of demand (read+write) MSHR misses
system.l2.demand_mshr_misses::total              6735                       # number of demand (read+write) MSHR misses
system.l2.overall_mshr_misses::.cpu.inst         1524                       # number of overall MSHR misses
system.l2.overall_mshr_misses::.cpu.data         5211                       # number of overall MSHR misses
system.l2.overall_mshr_misses::total             6735                       # number of overall MSHR misses
system.l2.demand_mshr_miss_latency::.cpu.inst    104282500                       # number of demand (read+write) MSHR miss cycles
system.l2.demand_mshr_miss_latency::.cpu.data    344573000                       # number of demand (read+write) MSHR miss cycles
system.l2.demand_mshr_miss_latency::total    448855500                       # number of demand (read+write) MSHR miss cycles
system.l2.overall_mshr_miss_latency::.cpu.inst    104282500                       # number of overall MSHR miss cycles
system.l2.overall_mshr_miss_latency::.cpu.data    344573000                       # number of overall MSHR miss cycles
system.l2.overall_mshr_miss_latency::total    448855500                       # number of overall MSHR miss cycles
system.l2.demand_mshr_miss_rate::.cpu.inst     0.560088                       # mshr miss rate for demand accesses
system.l2.demand_mshr_miss_rate::.cpu.data     0.866478                       # mshr miss rate for demand accesses
system.l2.demand_mshr_miss_rate::total       0.771036                       # mshr miss rate for demand accesses
system.l2.overall_mshr_miss_rate::.cpu.inst     0.560088                       # mshr miss rate for overall accesses
system.l2.overall_mshr_miss_rate::.cpu.data     0.866478                       # mshr miss rate for overall accesses
system.l2.overall_mshr_miss_rate::total      0.771036                       # mshr miss rate for overall accesses
system.l2.demand_avg_mshr_miss_latency::.cpu.inst 68426.837270                       # average overall mshr miss latency
system.l2.demand_avg_mshr_miss_latency::.cpu.data 66124.160430                       # average overall mshr miss latency
system.l2.demand_avg_mshr_miss_latency::total 66645.211581                       # average overall mshr miss latency
system.l2.overall_avg_mshr_miss_latency::.cpu.inst 68426.837270                       # average overall mshr miss latency
system.l2.overall_avg_mshr_miss_latency::.cpu.data 66124.160430                       # average overall mshr miss latency
system.l2.overall_avg_mshr_miss_latency::total 66645.211581                       # average overall mshr miss latency
system.l2.replacements                              0                       # number of replacements
system.l2.WritebackDirty_hits::.writebacks         1121                       # number of WritebackDirty hits
system.l2.WritebackDirty_hits::total             1121                       # number of WritebackDirty hits
system.l2.WritebackDirty_accesses::.writebacks         1121                       # number of WritebackDirty accesses(hits+misses)
system.l2.WritebackDirty_accesses::total         1121                       # number of WritebackDirty accesses(hits+misses)
system.l2.WritebackClean_hits::.writebacks         2464                       # number of WritebackClean hits
system.l2.WritebackClean_hits::total             2464                       # number of WritebackClean hits
system.l2.WritebackClean_accesses::.writebacks         2464                       # number of WritebackClean accesses(hits+misses)
system.l2.WritebackClean_accesses::total         2464                       # number of WritebackClean accesses(hits+misses)
system.l2.ReadExReq_hits::.cpu.data                 4                       # number of ReadExReq hits
system.l2.ReadExReq_hits::total                     4                       # number of ReadExReq hits
system.l2.ReadExReq_misses::.cpu.data            1032                       # number of ReadExReq misses
system.l2.ReadExReq_misses::total                1032                       # number of ReadExReq misses
system.l2.ReadExReq_miss_latency::.cpu.data     81036000                       # number of ReadExReq miss cycles
system.l2.ReadExReq_miss_latency::total      81036000                       # number of ReadExReq miss cycles
system.l2.ReadExReq_accesses::.cpu.data          1036                       # number of ReadExReq accesses(hits+misses)
system.l2.ReadExReq_accesses::total              1036                       # number of ReadExReq accesses(hits+misses)
system.l2.ReadExReq_miss_rate::.cpu.data     0.996139                       # miss rate for ReadExReq accesses
system.l2.ReadExReq_miss_rate::total         0.996139                       # miss rate for ReadExReq accesses
system.l2.ReadExReq_avg_miss_latency::.cpu.data 78523.255814                       # average ReadExReq miss latency
system.l2.ReadExReq_avg_miss_latency::total 78523.255814                       # average ReadExReq miss latency
system.l2.ReadExReq_mshr_misses::.cpu.data         1032                       # number of ReadExReq MSHR misses
system.l2.ReadExReq_mshr_misses::total           1032                       # number of ReadExReq MSHR misses
system.l2.ReadExReq_mshr_miss_latency::.cpu.data     70726000                       # number of ReadExReq MSHR miss cycles
system.l2.ReadExReq_mshr_miss_latency::total     70726000                       # number of ReadExReq MSHR miss cycles
system.l2.ReadExReq_mshr_miss_rate::.cpu.data     0.996139                       # mshr miss rate for ReadExReq accesses
system.l2.ReadExReq_mshr_miss_rate::total     0.996139                       # mshr miss rate for ReadExReq accesses
system.l2.ReadExReq_avg_mshr_miss_latency::.cpu.data 68532.945736                       # average ReadExReq mshr miss latency
system.l2.ReadExReq_avg_mshr_miss_latency::total 68532.945736                       # average ReadExReq mshr miss latency
system.l2.ReadCleanReq_hits::.cpu.inst           1197                       # number of ReadCleanReq hits
system.l2.ReadCleanReq_hits::total               1197                       # number of ReadCleanReq hits
system.l2.ReadCleanReq_misses::.cpu.inst         1524                       # number of ReadCleanReq misses
system.l2.ReadCleanReq_misses::total             1524                       # number of ReadCleanReq misses
system.l2.ReadCleanReq_miss_latency::.cpu.inst    119522500                       # number of ReadCleanReq miss cycles
system.l2.ReadCleanReq_miss_latency::total    119522500                       # number of ReadCleanReq miss cycles
system.l2.ReadCleanReq_accesses::.cpu.inst         2721                       # number of ReadCleanReq accesses(hits+misses)
system.l2.ReadCleanReq_accesses::total           2721                       # number of ReadCleanReq accesses(hits+misses)
system.l2.ReadCleanReq_miss_rate::.cpu.inst     0.560088                       # miss rate for ReadCleanReq accesses
system.l2.ReadCleanReq_miss_rate::total      0.560088                       # miss rate for ReadCleanReq accesses
system.l2.ReadCleanReq_avg_miss_latency::.cpu.inst 78426.837270                       # average ReadCleanReq miss latency
system.l2.ReadCleanReq_avg_miss_latency::total 78426.837270                       # average ReadCleanReq miss latency
system.l2.ReadCleanReq_mshr_misses::.cpu.inst         1524                       # number of ReadCleanReq MSHR misses
system.l2.ReadCleanReq_mshr_misses::total         1524                       # number of ReadCleanReq MSHR misses
system.l2.ReadCleanReq_mshr_miss_latency::.cpu.inst    104282500                       # number of ReadCleanReq MSHR miss cycles
system.l2.ReadCleanReq_mshr_miss_latency::total    104282500                       # number of ReadCleanReq MSHR miss cycles
system.l2.ReadCleanReq_mshr_miss_rate::.cpu.inst     0.560088                       # mshr miss rate for ReadCleanReq accesses
system.l2.ReadCleanReq_mshr_miss_rate::total     0.560088                       # mshr miss rate for ReadCleanReq accesses
system.l2.ReadCleanReq_avg_mshr_miss_latency::.cpu.inst 68426.837270                       # average ReadCleanReq mshr miss latency
system.l2.ReadCleanReq_avg_mshr_miss_latency::total 68426.837270                       # average ReadCleanReq mshr miss latency
[...]
system.cpu.dcache.demand_accesses::.cpu.data       320199                       # number of demand (read+write) accesses
system.cpu.dcache.demand_accesses::total       320199                       # number of demand (read+write) accesses
system.cpu.dcache.overall_accesses::.cpu.data       320211                       # number of overall (read+write) accesses
system.cpu.dcache.overall_accesses::total       320211                       # number of overall (read+write) accesses
system.cpu.dcache.demand_miss_rate::.cpu.data     0.034922                       # miss rate for demand accesses
system.cpu.dcache.demand_miss_rate::total     0.034922                       # miss rate for demand accesses
system.cpu.dcache.overall_miss_rate::.cpu.data     0.034927                       # miss rate for overall accesses
system.cpu.dcache.overall_miss_rate::total     0.034927                       # miss rate for overall accesses
system.cpu.dcache.demand_avg_miss_latency::.cpu.data 59813.793239                       # average overall miss latency
system.cpu.dcache.demand_avg_miss_latency::total 59813.793239                       # average overall miss latency
system.cpu.dcache.overall_avg_miss_latency::.cpu.data 59803.096924                       # average overall miss latency
system.cpu.dcache.overall_avg_miss_latency::total 59803.096924                       # average overall miss latency
system.cpu.dcache.blocked_cycles::no_mshrs         5753                       # number of cycles access was blocked
system.cpu.dcache.blocked_cycles::no_targets            0                       # number of cycles access was blocked
system.cpu.dcache.blocked::no_mshrs               204                       # number of cycles access was blocked
system.cpu.dcache.blocked::no_targets               0                       # number of cycles access was blocked
system.cpu.dcache.avg_blocked_cycles::no_mshrs    28.200980                       # average number of cycles each access was blocked
system.cpu.dcache.avg_blocked_cycles::no_targets          nan                       # average number of cycles each access was blocked
system.cpu.dcache.writebacks::.writebacks         1121                       # number of writebacks
system.cpu.dcache.writebacks::total              1121                       # number of writebacks
system.cpu.dcache.demand_mshr_hits::.cpu.data         5026                       # number of demand (read+write) MSHR hits
system.cpu.dcache.demand_mshr_hits::total         5026                       # number of demand (read+write) MSHR hits
system.cpu.dcache.overall_mshr_hits::.cpu.data         5026                       # number of overall MSHR hits
system.cpu.dcache.overall_mshr_hits::total         5026                       # number of overall MSHR hits
system.cpu.dcache.demand_mshr_misses::.cpu.data         6156                       # number of demand (read+write) MSHR misses
system.cpu.dcache.demand_mshr_misses::total         6156                       # number of demand (read+write) MSHR misses
system.cpu.dcache.overall_mshr_misses::.cpu.data         6158                       # number of overall MSHR misses
system.cpu.dcache.overall_mshr_misses::total         6158                       # number of overall MSHR misses
system.cpu.dcache.demand_mshr_miss_latency::.cpu.data    418322389                       # number of demand (read+write) MSHR miss cycles
system.cpu.dcache.demand_mshr_miss_latency::total    418322389                       # number of demand (read+write) MSHR miss cycles
system.cpu.dcache.overall_mshr_miss_latency::.cpu.data    418506889                       # number of overall MSHR miss cycles
system.cpu.dcache.overall_mshr_miss_latency::total    418506889                       # number of overall MSHR miss cycles
system.cpu.dcache.demand_mshr_miss_rate::.cpu.data     0.019226                       # mshr miss rate for demand accesses
system.cpu.dcache.demand_mshr_miss_rate::total     0.019226                       # mshr miss rate for demand accesses
system.cpu.dcache.overall_mshr_miss_rate::.cpu.data     0.019231                       # mshr miss rate for overall accesses
system.cpu.dcache.overall_mshr_miss_rate::total     0.019231                       # mshr miss rate for overall accesses
system.cpu.dcache.demand_avg_mshr_miss_latency::.cpu.data 67953.604451                       # average overall mshr miss latency
system.cpu.dcache.demand_avg_mshr_miss_latency::total 67953.604451                       # average overall mshr miss latency
system.cpu.dcache.overall_avg_mshr_miss_latency::.cpu.data 67961.495453                       # average overall mshr miss latency
system.cpu.dcache.overall_avg_mshr_miss_latency::total 67961.495453                       # average overall mshr miss latency
system.cpu.dcache.replacements                   5135                       # number of replacements
system.cpu.dcache.ReadReq_hits::.cpu.data       250410                       # number of ReadReq hits
system.cpu.dcache.ReadReq_hits::total          250410                       # number of ReadReq hits
system.cpu.dcache.ReadReq_misses::.cpu.data         7863                       # number of ReadReq misses
system.cpu.dcache.ReadReq_misses::total          7863                       # number of ReadReq misses
system.cpu.dcache.ReadReq_miss_latency::.cpu.data    447192000                       # number of ReadReq miss cycles
system.cpu.dcache.ReadReq_miss_latency::total    447192000                       # number of ReadReq miss cycles
system.cpu.dcache.ReadReq_accesses::.cpu.data       258273                       # number of ReadReq accesses(hits+misses)
system.cpu.dcache.ReadReq_accesses::total       258273                       # number of ReadReq accesses(hits+misses)
system.cpu.dcache.ReadReq_miss_rate::.cpu.data     0.030445                       # miss rate for ReadReq accesses
system.cpu.dcache.ReadReq_miss_rate::total     0.030445                       # miss rate for ReadReq accesses
system.cpu.dcache.ReadReq_avg_miss_latency::.cpu.data 56872.949256                       # average ReadReq miss latency
system.cpu.dcache.ReadReq_avg_miss_latency::total 56872.949256                       # average ReadReq miss latency
system.cpu.dcache.ReadReq_mshr_hits::.cpu.data         2890                       # number of ReadReq MSHR hits
system.cpu.dcache.ReadReq_mshr_hits::total         2890                       # number of ReadReq MSHR hits
system.cpu.dcache.ReadReq_mshr_misses::.cpu.data         4973                       # number of ReadReq MSHR misses
system.cpu.dcache.ReadReq_mshr_misses::total         4973                       # number of ReadReq MSHR misses
system.cpu.dcache.ReadReq_mshr_miss_latency::.cpu.data    331126000                       # number of ReadReq MSHR miss cycles
system.cpu.dcache.ReadReq_mshr_miss_latency::total    331126000                       # number of ReadReq MSHR miss cycles
system.cpu.dcache.ReadReq_mshr_miss_rate::.cpu.data     0.019255                       # mshr miss rate for ReadReq accesses
system.cpu.dcache.ReadReq_mshr_miss_rate::total     0.019255                       # mshr miss rate for ReadReq accesses
system.cpu.dcache.ReadReq_avg_mshr_miss_latency::.cpu.data 66584.757692                       # average ReadReq mshr miss latency
system.cpu.dcache.ReadReq_avg_mshr_miss_latency::total 66584.757692                       # average ReadReq mshr miss latency
system.cpu.dcache.WriteReq_hits::.cpu.data        58595                       # number of WriteReq hits
system.cpu.dcache.WriteReq_hits::total          58595                       # number of WriteReq hits
system.cpu.dcache.WriteReq_misses::.cpu.data         3180                       # number of WriteReq misses
system.cpu.dcache.WriteReq_misses::total         3180                       # number of WriteReq misses
system.cpu.dcache.WriteReq_miss_latency::.cpu.data    217199934                       # number of WriteReq miss cycles
system.cpu.dcache.WriteReq_miss_latency::total    217199934                       # number of WriteReq miss cycles
system.cpu.dcache.WriteReq_accesses::.cpu.data        61775                       # number of WriteReq accesses(hits+misses)
system.cpu.dcache.WriteReq_accesses::total        61775                       # number of WriteReq accesses(hits+misses)
system.cpu.dcache.WriteReq_miss_rate::.cpu.data     0.051477                       # miss rate for WriteReq accesses
system.cpu.dcache.WriteReq_miss_rate::total     0.051477                       # miss rate for WriteReq accesses
system.cpu.dcache.WriteReq_avg_miss_latency::.cpu.data 68301.866038                       # average WriteReq miss latency
system.cpu.dcache.WriteReq_avg_miss_latency::total 68301.866038                       # average WriteReq miss latency
system.cpu.dcache.WriteReq_mshr_hits::.cpu.data         2136                       # number of WriteReq MSHR hits
system.cpu.dcache.WriteReq_mshr_hits::total         2136                       # number of WriteReq MSHR hits
system.cpu.dcache.WriteReq_mshr_misses::.cpu.data         1044                       # number of WriteReq MSHR misses
system.cpu.dcache.WriteReq_mshr_misses::total         1044                       # number of WriteReq MSHR misses
system.cpu.dcache.WriteReq_mshr_miss_latency::.cpu.data     82889487                       # number of WriteReq MSHR miss cycles
system.cpu.dcache.WriteReq_mshr_miss_latency::total     82889487                       # number of WriteReq MSHR miss cycles
system.cpu.dcache.WriteReq_mshr_miss_rate::.cpu.data     0.016900                       # mshr miss rate for WriteReq accesses
system.cpu.dcache.WriteReq_mshr_miss_rate::total     0.016900                       # mshr miss rate for WriteReq accesses
system.cpu.dcache.WriteReq_avg_mshr_miss_latency::.cpu.data 79396.060345                       # average WriteReq mshr miss latency
system.cpu.dcache.WriteReq_avg_mshr_miss_latency::total 79396.060345                       # average WriteReq mshr miss latency
system.cpu.dcache.SoftPFReq_hits::.cpu.data           10                       # number of SoftPFReq hits
system.cpu.dcache.SoftPFReq_hits::total            10                       # number of SoftPFReq hits
system.cpu.dcache.SoftPFReq_misses::.cpu.data            2                       # number of SoftPFReq misses
system.cpu.dcache.SoftPFReq_misses::total            2                       # number of SoftPFReq misses
system.cpu.dcache.SoftPFReq_accesses::.cpu.data           12                       # number of SoftPFReq accesses(hits+misses)
system.cpu.dcache.SoftPFReq_accesses::total           12                       # number of SoftPFReq accesses(hits+misses)
system.cpu.dcache.SoftPFReq_miss_rate::.cpu.data     0.166667                       # miss rate for SoftPFReq accesses
system.cpu.dcache.SoftPFReq_miss_rate::total     0.166667                       # miss rate for SoftPFReq accesses
system.cpu.dcache.SoftPFReq_mshr_misses::.cpu.data            2                       # number of SoftPFReq MSHR misses
system.cpu.dcache.SoftPFReq_mshr_misses::total            2                       # number of SoftPFReq MSHR misses
system.cpu.dcache.SoftPFReq_mshr_miss_latency::.cpu.data       184500                       # number of SoftPFReq MSHR miss cycles
system.cpu.dcache.SoftPFReq_mshr_miss_latency::total       184500                       # number of SoftPFReq MSHR miss cycles
system.cpu.dcache.SoftPFReq_mshr_miss_rate::.cpu.data     0.166667                       # mshr miss rate for SoftPFReq accesses
system.cpu.dcache.SoftPFReq_mshr_miss_rate::total     0.166667                       # mshr miss rate for SoftPFReq accesses
system.cpu.dcache.SoftPFReq_avg_mshr_miss_latency::.cpu.data        92250                       # average SoftPFReq mshr miss latency
system.cpu.dcache.SoftPFReq_avg_mshr_miss_latency::total        92250                       # average SoftPFReq mshr miss latency
system.cpu.dcache.WriteLineReq_hits::.cpu.data           12                       # number of WriteLineReq hits
system.cpu.dcache.WriteLineReq_hits::total           12                       # number of WriteLineReq hits
system.cpu.dcache.WriteLineReq_misses::.cpu.data          139                       # number of WriteLineReq misses
system.cpu.dcache.WriteLineReq_misses::total          139                       # number of WriteLineReq misses
system.cpu.dcache.WriteLineReq_miss_latency::.cpu.data      4445902                       # number of WriteLineReq miss cycles
system.cpu.dcache.WriteLineReq_miss_latency::total      4445902                       # number of WriteLineReq miss cycles
system.cpu.dcache.WriteLineReq_accesses::.cpu.data          151                       # number of WriteLineReq accesses(hits+misses)
system.cpu.dcache.WriteLineReq_accesses::total          151                       # number of WriteLineReq accesses(hits+misses)
system.cpu.dcache.WriteLineReq_miss_rate::.cpu.data     0.920530                       # miss rate for WriteLineReq accesses
system.cpu.dcache.WriteLineReq_miss_rate::total     0.920530                       # miss rate for WriteLineReq accesses
system.cpu.dcache.WriteLineReq_avg_miss_latency::.cpu.data 31984.906475                       # average WriteLineReq miss latency
system.cpu.dcache.WriteLineReq_avg_miss_latency::total 31984.906475                       # average WriteLineReq miss latency
system.cpu.dcache.WriteLineReq_mshr_misses::.cpu.data          139                       # number of WriteLineReq MSHR misses
system.cpu.dcache.WriteLineReq_mshr_misses::total          139                       # number of WriteLineReq MSHR misses
system.cpu.dcache.WriteLineReq_mshr_miss_latency::.cpu.data      4306902                       # number of WriteLineReq MSHR miss cycles
system.cpu.dcache.WriteLineReq_mshr_miss_latency::total      4306902                       # number of WriteLineReq MSHR miss cycles
system.cpu.dcache.WriteLineReq_mshr_miss_rate::.cpu.data     0.920530                       # mshr miss rate for WriteLineReq accesses
system.cpu.dcache.WriteLineReq_mshr_miss_rate::total     0.920530                       # mshr miss rate for WriteLineReq accesses
system.cpu.dcache.WriteLineReq_avg_mshr_miss_latency::.cpu.data 30984.906475                       # average WriteLineReq mshr miss latency
system.cpu.dcache.WriteLineReq_avg_mshr_miss_latency::total 30984.906475                       # average WriteLineReq mshr miss latency
system.cpu.dcache.LoadLockedReq_hits::.cpu.data          652                       # number of LoadLockedReq hits
system.cpu.dcache.LoadLockedReq_hits::total          652                       # number of LoadLockedReq hits
system.cpu.dcache.LoadLockedReq_misses::.cpu.data            6                       # number of LoadLockedReq misses
system.cpu.dcache.LoadLockedReq_misses::total            6                       # number of LoadLockedReq misses
system.cpu.dcache.LoadLockedReq_miss_latency::.cpu.data       382500                       # number of LoadLockedReq miss cycles
system.cpu.dcache.LoadLockedReq_miss_latency::total       382500                       # number of LoadLockedReq miss cycles
system.cpu.dcache.LoadLockedReq_accesses::.cpu.data          658                       # number of LoadLockedReq accesses(hits+misses)
system.cpu.dcache.LoadLockedReq_accesses::total          658                       # number of LoadLockedReq accesses(hits+misses)
system.cpu.dcache.LoadLockedReq_miss_rate::.cpu.data     0.009119                       # miss rate for LoadLockedReq accesses
system.cpu.dcache.LoadLockedReq_miss_rate::total     0.009119                       # miss rate for LoadLockedReq accesses
system.cpu.dcache.LoadLockedReq_avg_miss_latency::.cpu.data        63750                       # average LoadLockedReq miss latency
system.cpu.dcache.LoadLockedReq_avg_miss_latency::total        63750                       # average LoadLockedReq miss latency
system.cpu.dcache.LoadLockedReq_mshr_hits::.cpu.data            3                       # number of LoadLockedReq MSHR hits
system.cpu.dcache.LoadLockedReq_mshr_hits::total            3                       # number of LoadLockedReq MSHR hits
system.cpu.dcache.LoadLockedReq_mshr_misses::.cpu.data            3                       # number of LoadLockedReq MSHR misses
system.cpu.dcache.LoadLockedReq_mshr_misses::total            3                       # number of LoadLockedReq MSHR misses
system.cpu.dcache.LoadLockedReq_mshr_miss_latency::.cpu.data       196500                       # number of LoadLockedReq MSHR miss cycles
system.cpu.dcache.LoadLockedReq_mshr_miss_latency::total       196500                       # number of LoadLockedReq MSHR miss cycles
system.cpu.dcache.LoadLockedReq_mshr_miss_rate::.cpu.data     0.004559                       # mshr miss rate for LoadLockedReq accesses
system.cpu.dcache.LoadLockedReq_mshr_miss_rate::total     0.004559                       # mshr miss rate for LoadLockedReq accesses
system.cpu.dcache.LoadLockedReq_avg_mshr_miss_latency::.cpu.data        65500                       # average LoadLockedReq mshr miss latency
system.cpu.dcache.LoadLockedReq_avg_mshr_miss_latency::total        65500                       # average LoadLockedReq mshr miss latency
system.cpu.dcache.StoreCondReq_hits::.cpu.data          530                       # number of StoreCondReq hits
system.cpu.dcache.StoreCondReq_hits::total          530                       # number of StoreCondReq hits
system.cpu.dcache.StoreCondReq_accesses::.cpu.data          530                       # number of StoreCondReq accesses(hits+misses)
system.cpu.dcache.StoreCondReq_accesses::total          530                       # number of StoreCondReq accesses(hits+misses)
system.cpu.dcache.power_state.pwrStateResidencyTicks::UNDEFINED   1001221500                       # Cumulative time (in ticks) in various power states
system.cpu.dcache.tags.tagsinuse           887.883657                       # Cycle average of tags in use
system.cpu.dcache.tags.total_refs              316368                       # Total number of references to valid blocks.
system.cpu.dcache.tags.sampled_refs              6159                       # Sample count of references to valid blocks.
system.cpu.dcache.tags.avg_refs             51.366780                       # Average number of references to valid blocks.
system.cpu.dcache.tags.warmup_cycle            176500                       # Cycle when the warmup percentage was hit.
system.cpu.dcache.tags.occ_blocks::.cpu.data   887.883657                       # Average occupied blocks per requestor
system.cpu.dcache.tags.occ_percent::.cpu.data     0.867074                       # Average percentage of cache occupancy
system.cpu.dcache.tags.occ_percent::total     0.867074                       # Average percentage of cache occupancy
system.cpu.dcache.tags.occ_task_id_blocks::1024         1024                       # Occupied blocks per task id
system.cpu.dcache.tags.age_task_id_blocks_1024::0          185                       # Occupied blocks per task id
system.cpu.dcache.tags.age_task_id_blocks_1024::1          806                       # Occupied blocks per task id
system.cpu.dcache.tags.age_task_id_blocks_1024::2           33                       # Occupied blocks per task id
system.cpu.dcache.tags.occ_task_id_percent::1024            1                       # Percentage of cache occupancy per task id
system.cpu.dcache.tags.tag_accesses            648957                       # Number of tag accesses
system.cpu.dcache.tags.data_accesses           648957                       # Number of data accesses
system.cpu.dcache.tags.power_state.pwrStateResidencyTicks::UNDEFINED   1001221500                       # Cumulative time (in ticks) in various power states
system.cpu.power_state.pwrStateResidencyTicks::ON   1001221500                       # Cumulative time (in ticks) in various power states

---------- End Simulation Statistics   ----------
