
---------- Begin Simulation Statistics ----------
final_tick                                  997520500                       # Number of ticks from beginning of simulation (restored from checkpoints and never reset)
host_inst_rate                                  75656                       # Simulator instruction rate (inst/s)
host_mem_usage                                 863636                       # Number of bytes of host memory used
host_op_rate                                    76181                       # Simulator op (including micro ops) rate (op/s)
host_seconds                                    13.22                       # Real time elapsed on the host
host_tick_rate                               75467474                       # Simulator tick rate (ticks/s)
sim_freq                                 1000000000000                       # Frequency of simulated ticks
sim_insts                                     1000001                       # Number of instructions simulated
sim_ops                                       1006944                       # Number of ops (including micro ops) simulated
sim_seconds                                  0.000998                       # Number of seconds simulated
sim_ticks                                   997520500                       # Number of ticks simulated
system.cpu.branchPred.BTBCorrect                    0                       # Number of correct BTB predictions (this stat may not work properly.
system.cpu.branchPred.BTBHitPct             99.093389                       # BTB Hit Percentage
system.cpu.branchPred.BTBHits                  209967                       # Number of BTB hits
system.cpu.branchPred.BTBLookups               211888                       # Number of BTB lookups
system.cpu.branchPred.RASInCorrect                  0                       # Number of incorrect RAS predictions.
system.cpu.branchPred.condIncorrect              4175                       # Number of conditional branches incorrect
system.cpu.branchPred.condPredicted            208776                       # Number of conditional branches predicted
system.cpu.branchPred.indirectHits                  3                       # Number of indirect target hits.
system.cpu.branchPred.indirectLookups             148                       # Number of indirect predictor lookups.
system.cpu.branchPred.indirectMisses              145                       # Number of indirect misses.
system.cpu.branchPred.lookups                  222075                       # Number of BP lookups
system.cpu.branchPred.usedRAS                    2967                       # Number of times the RAS was used to get a target.
system.cpu.branchPredindirectMispredicted           39                       # Number of mispredicted indirect branches.
system.cpu.cc_regfile_reads                    765987                       # number of cc regfile reads
system.cpu.cc_regfile_writes                   768315                       # number of cc regfile writes
system.cpu.commit.amos                              0                       # Number of atomic instructions committed
system.cpu.commit.branchMispredicts              3977                       # The number of times a branch was mispredicted
system.cpu.commit.branches                     134686                       # Number of branches committed
system.cpu.commit.bw_lim_events                 46158                       # number cycles where commit BW limit reached
system.cpu.commit.commitNonSpecStalls              31                       # The number of times commit has been forced to stall to communicate backwards
system.cpu.commit.commitSquashedInsts          263526                       # The number of squashed insts skipped by commit
system.cpu.commit.committedInsts              1000027                       # Number of instructions committed
system.cpu.commit.committedOps                1006970                       # Number of ops (including micro ops) committed
system.cpu.commit.committed_per_cycle::samples      1926409                       # Number of insts commited each cycle
system.cpu.commit.committed_per_cycle::mean     0.522719                       # Number of insts commited each cycle
system.cpu.commit.committed_per_cycle::stdev     1.552727                       # Number of insts commited each cycle
system.cpu.commit.committed_per_cycle::underflows            0      0.00%      0.00% # Number of insts commited each cycle
system.cpu.commit.committed_per_cycle::0      1638329     85.05%     85.05% # Number of insts commited each cycle
system.cpu.commit.committed_per_cycle::1        93918      4.88%     89.92% # Number of insts commited each cycle
system.cpu.commit.committed_per_cycle::2        13032      0.68%     90.60% # Number of insts commited each cycle
system.cpu.commit.committed_per_cycle::3        51023      2.65%     93.25% # Number of insts commited each cycle
system.cpu.commit.committed_per_cycle::4        58300      3.03%     96.27% # Number of insts commited each cycle
system.cpu.commit.committed_per_cycle::5        23518      1.22%     97.49% # Number of insts commited each cycle
system.cpu.commit.committed_per_cycle::6         1052      0.05%     97.55% # Number of insts commited each cycle
system.cpu.commit.committed_per_cycle::7         1079      0.06%     97.60% # Number of insts commited each cycle
system.cpu.commit.committed_per_cycle::8        46158      2.40%    100.00% # Number of insts commited each cycle
system.cpu.commit.committed_per_cycle::overflows            0      0.00%    100.00% # Number of insts commited each cycle
system.cpu.commit.committed_per_cycle::min_value            0                       # Number of insts commited each cycle
system.cpu.commit.committed_per_cycle::max_value            8                       # Number of insts commited each cycle
system.cpu.commit.committed_per_cycle::total      1926409                       # Number of insts commited each cycle
system.cpu.commit.fp_insts                          0                       # Number of committed floating point instructions.
system.cpu.commit.function_calls                 2158                       # Number of function calls committed.
system.cpu.commit.int_insts                    879162                       # Number of committed integer instructions.
system.cpu.commit.loads                        161698                       # Number of loads committed
system.cpu.commit.membars                          20                       # Number of memory barriers committed
system.cpu.commit.op_class_0::No_OpClass            5      0.00%      0.00% # Class of committed instruction
system.cpu.commit.op_class_0::IntAlu           625681     62.14%     62.14% # Class of committed instruction
system.cpu.commit.op_class_0::IntMult             633      0.06%     62.20% # Class of committed instruction
system.cpu.commit.op_class_0::IntDiv                2      0.00%     62.20% # Class of committed instruction
system.cpu.commit.op_class_0::FloatAdd              0      0.00%     62.20% # Class of committed instruction
system.cpu.commit.op_class_0::FloatCmp              0      0.00%     62.20% # Class of committed instruction
system.cpu.commit.op_class_0::FloatCvt              0      0.00%     62.20% # Class of committed instruction
system.cpu.commit.op_class_0::FloatMult             0      0.00%     62.20% # Class of committed instruction
system.cpu.commit.op_class_0::FloatMultAcc            0      0.00%     62.20% # Class of committed instruction
system.cpu.commit.op_class_0::FloatDiv              0      0.00%     62.20% # Class of committed instruction
system.cpu.commit.op_class_0::FloatMisc             1      0.00%     62.20% # Class of committed instruction
system.cpu.commit.op_class_0::FloatSqrt             0      0.00%     62.20% # Class of committed instruction
system.cpu.commit.op_class_0::SimdAdd              20      0.00%     62.20% # Class of committed instruction
system.cpu.commit.op_class_0::SimdAddAcc            0      0.00%     62.20% # Class of committed instruction
system.cpu.commit.op_class_0::SimdAlu              19      0.00%     62.20% # Class of committed instruction
system.cpu.commit.op_class_0::SimdCmp              20      0.00%     62.20% # Class of committed instruction
system.cpu.commit.op_class_0::SimdCvt               0      0.00%     62.20% # Class of committed instruction
system.cpu.commit.op_class_0::SimdMisc             23      0.00%     62.21% # Class of committed instruction
system.cpu.commit.op_class_0::SimdMult              0      0.00%     62.21% # Class of committed instruction
system.cpu.commit.op_class_0::SimdMultAcc            0      0.00%     62.21% # Class of committed instruction
system.cpu.commit.op_class_0::SimdShift             0      0.00%     62.21% # Class of committed instruction
system.cpu.commit.op_class_0::SimdShiftAcc            0      0.00%     62.21% # Class of committed instruction
system.cpu.commit.op_class_0::SimdDiv               0      0.00%     62.21% # Class of committed instruction
system.cpu.commit.op_class_0::SimdSqrt              0      0.00%     62.21% # Class of committed instruction
system.cpu.commit.op_class_0::SimdFloatAdd            0      0.00%     62.21% # Class of committed instruction
system.cpu.commit.op_class_0::SimdFloatAlu            0      0.00%     62.21% # Class of committed instruction
system.cpu.commit.op_class_0::SimdFloatCmp            0      0.00%     62.21% # Class of committed instruction
system.cpu.commit.op_class_0::SimdFloatCvt            0      0.00%     62.21% # Class of committed instruction
system.cpu.commit.op_class_0::SimdFloatDiv            0      0.00%     62.21% # Class of committed instruction
system.cpu.commit.op_class_0::SimdFloatMisc            0      0.00%     62.21% # Class of committed instruction
system.cpu.commit.op_class_0::SimdFloatMult            0      0.00%     62.21% # Class of committed instruction
system.cpu.commit.op_class_0::SimdFloatMultAcc            0      0.00%     62.21% # Class of committed instruction
system.cpu.commit.op_class_0::SimdFloatSqrt            0      0.00%     62.21% # Class of committed instruction
system.cpu.commit.op_class_0::SimdReduceAdd            0      0.00%     62.21% # Class of committed instruction
system.cpu.commit.op_class_0::SimdReduceAlu            0      0.00%     62.21% # Class of committed instruction
system.cpu.commit.op_class_0::SimdReduceCmp            0      0.00%     62.21% # Class of committed instruction
system.cpu.commit.op_class_0::SimdFloatReduceAdd            0      0.00%     62.21% # Class of committed instruction
system.cpu.commit.op_class_0::SimdFloatReduceCmp            0      0.00%     62.21% # Class of committed instruction
system.cpu.commit.op_class_0::SimdAes               0      0.00%     62.21% # Class of committed instruction
system.cpu.commit.op_class_0::SimdAesMix            0      0.00%     62.21% # Class of committed instruction
system.cpu.commit.op_class_0::SimdSha1Hash            0      0.00%     62.21% # Class of committed instruction
system.cpu.commit.op_class_0::SimdSha1Hash2            0      0.00%     62.21% # Class of committed instruction
system.cpu.commit.op_class_0::SimdSha256Hash            0      0.00%     62.21% # Class of committed instruction
system.cpu.commit.op_class_0::SimdSha256Hash2            0      0.00%     62.21% # Class of committed instruction
system.cpu.commit.op_class_0::SimdShaSigma2            0      0.00%     62.21% # Class of committed instruction
system.cpu.commit.op_class_0::SimdShaSigma3            0      0.00%     62.21% # Class of committed instruction
system.cpu.commit.op_class_0::SimdPredAlu            0      0.00%     62.21% # Class of committed instruction
system.cpu.commit.op_class_0::MemRead          161698     16.06%     78.26% # Class of committed instruction
system.cpu.commit.op_class_0::MemWrite         218868     21.74%    100.00% # Class of committed instruction
system.cpu.commit.op_class_0::FloatMemRead            0      0.00%    100.00% # Class of committed instruction
system.cpu.commit.op_class_0::FloatMemWrite            0      0.00%    100.00% # Class of committed instruction
system.cpu.commit.op_class_0::IprAccess             0      0.00%    100.00% # Class of committed instruction
system.cpu.commit.op_class_0::InstPrefetch            0      0.00%    100.00% # Class of committed instruction
system.cpu.commit.op_class_0::total           1006970                       # Class of committed instruction
system.cpu.commit.refs                         380566                       # Number of memory references committed
system.cpu.commit.swp_count                         0                       # Number of s/w prefetches committed
system.cpu.commit.vec_insts                       339                       # Number of committed Vector instructions.
system.cpu.committedInsts                     1000001                       # Number of Instructions Simulated
system.cpu.committedOps                       1006944                       # Number of Ops (including micro ops) Simulated
system.cpu.cpi                               1.995040                       # CPI: Cycles Per Instruction
system.cpu.cpi_total                         1.995040                       # CPI: Total CPI of All Threads
system.cpu.decode.BlockedCycles               1638718                       # Number of cycles decode is blocked
system.cpu.decode.BranchMispred                   205                       # Number of times decode detected a branch misprediction
system.cpu.decode.BranchResolved               193422                       # Number of times decode resolved a branch
system.cpu.decode.DecodedInsts                1353609                       # Number of instructions handled by decode
system.cpu.decode.IdleCycles                    95541                       # Number of cycles decode is idle
system.cpu.decode.RunCycles                    161886                       # Number of cycles decode is running
system.cpu.decode.SquashCycles                   5503                       # Number of cycles decode is squashing
system.cpu.decode.SquashedInsts                   737                       # Number of squashed instructions handled by decode
system.cpu.decode.UnblockCycles                 60189                       # Number of cycles decode is unblocking
system.cpu.dtb.accesses                             0                       # DTB accesses
system.cpu.dtb.align_faults                         0                       # Number of TLB faults due to alignment restrictions
system.cpu.dtb.domain_faults                        0                       # Number of TLB faults due to domain restrictions
system.cpu.dtb.flush_entries                        0                       # Number of entries that have been flushed from TLB
system.cpu.dtb.flush_tlb                            0                       # Number of times complete TLB was flushed
system.cpu.dtb.flush_tlb_asid                       0                       # Number of times TLB was flushed by ASID
system.cpu.dtb.flush_tlb_mva                        0                       # Number of times TLB was flushed by MVA
system.cpu.dtb.flush_tlb_mva_asid                   0                       # Number of times TLB was flushed by MVA & ASID
system.cpu.dtb.hits                                 0                       # DTB hits
system.cpu.dtb.inst_accesses                        0                       # ITB inst accesses
system.cpu.dtb.inst_hits                            0                       # ITB inst hits
system.cpu.dtb.inst_misses                          0                       # ITB inst misses
system.cpu.dtb.misses                               0                       # DTB misses
system.cpu.dtb.perms_faults                         0                       # Number of TLB faults due to permissions restrictions
system.cpu.dtb.prefetch_faults                      0                       # Number of TLB faults due to prefetch
system.cpu.dtb.read_accesses                        0                       # DTB read accesses
system.cpu.dtb.read_hits                            0                       # DTB read hits
system.cpu.dtb.read_misses                          0                       # DTB read misses
system.cpu.dtb.stage2_mmu.stage2_tlb.accesses            0                       # DTB accesses
system.cpu.dtb.stage2_mmu.stage2_tlb.align_faults            0                       # Number of TLB faults due to alignment restrictions
system.cpu.dtb.stage2_mmu.stage2_tlb.domain_faults            0                       # Number of TLB faults due to domain restrictions
system.cpu.dtb.stage2_mmu.stage2_tlb.flush_entries            0                       # Number of entries that have been flushed from TLB
system.cpu.dtb.stage2_mmu.stage2_tlb.flush_tlb            0                       # Number of times complete TLB was flushed
system.cpu.dtb.stage2_mmu.stage2_tlb.flush_tlb_asid            0                       # Number of times TLB was flushed by ASID
system.cpu.dtb.stage2_mmu.stage2_tlb.flush_tlb_mva            0                       # Number of times TLB was flushed by MVA
system.cpu.dtb.stage2_mmu.stage2_tlb.flush_tlb_mva_asid            0                       # Number of times TLB was flushed by MVA & ASID
system.cpu.dtb.stage2_mmu.stage2_tlb.hits            0                       # DTB hits
system.cpu.dtb.stage2_mmu.stage2_tlb.inst_accesses            0                       # ITB inst accesses
system.cpu.dtb.stage2_mmu.stage2_tlb.inst_hits            0                       # ITB inst hits
system.cpu.dtb.stage2_mmu.stage2_tlb.inst_misses            0                       # ITB inst misses
system.cpu.dtb.stage2_mmu.stage2_tlb.misses            0                       # DTB misses
system.cpu.dtb.stage2_mmu.stage2_tlb.perms_faults            0                       # Number of TLB faults due to permissions restrictions
system.cpu.dtb.stage2_mmu.stage2_tlb.prefetch_faults            0                       # Number of TLB faults due to prefetch
system.cpu.dtb.stage2_mmu.stage2_tlb.read_accesses            0                       # DTB read accesses
system.cpu.dtb.stage2_mmu.stage2_tlb.read_hits            0                       # DTB read hits
system.cpu.dtb.stage2_mmu.stage2_tlb.read_misses            0                       # DTB read misses
system.cpu.dtb.stage2_mmu.stage2_tlb.walker.walkRequestOrigin_Requested::Data            0                       # Table walker requests started/completed, data/inst
system.cpu.dtb.stage2_mmu.stage2_tlb.walker.walkRequestOrigin_Requested::Inst            0                       # Table walker requests started/completed, data/inst
system.cpu.dtb.stage2_mmu.stage2_tlb.walker.walkRequestOrigin_Requested::total            0                       # Table walker requests started/completed, data/inst
system.cpu.dtb.stage2_mmu.stage2_tlb.walker.walkRequestOrigin_Completed::Data            0                       # Table walker requests started/completed, data/inst
system.cpu.dtb.stage2_mmu.stage2_tlb.walker.walkRequestOrigin_Completed::Inst            0                       # Table walker requests started/completed, data/inst
system.cpu.dtb.stage2_mmu.stage2_tlb.walker.walkRequestOrigin_Completed::total            0                       # Table walker requests started/completed, data/inst
system.cpu.dtb.stage2_mmu.stage2_tlb.walker.walkRequestOrigin::total            0                       # Table walker requests started/completed, data/inst
system.cpu.dtb.stage2_mmu.stage2_tlb.walker.walks            0                       # Table walker walks requested
system.cpu.dtb.stage2_mmu.stage2_tlb.write_accesses            0                       # DTB write accesses
system.cpu.dtb.stage2_mmu.stage2_tlb.write_hits            0                       # DTB write hits
system.cpu.dtb.stage2_mmu.stage2_tlb.write_misses            0                       # DTB write misses
system.cpu.dtb.walker.walkRequestOrigin_Requested::Data            0                       # Table walker requests started/completed, data/inst
system.cpu.dtb.walker.walkRequestOrigin_Requested::Inst            0                       # Table walker requests started/completed, data/inst
system.cpu.dtb.walker.walkRequestOrigin_Requested::total            0                       # Table walker requests started/completed, data/inst
system.cpu.dtb.walker.walkRequestOrigin_Completed::Data            0                       # Table walker requests started/completed, data/inst
system.cpu.dtb.walker.walkRequestOrigin_Completed::Inst            0                       # Table walker requests started/completed, data/inst
system.cpu.dtb.walker.walkRequestOrigin_Completed::total            0                       # Table walker requests started/completed, data/inst
system.cpu.dtb.walker.walkRequestOrigin::total            0                       # Table walker requests started/completed, data/inst
system.cpu.dtb.walker.walks                         0                       # Table walker walks requested
system.cpu.dtb.write_accesses                       0                       # DTB write accesses
system.cpu.dtb.write_hits                           0                       # DTB write hits
system.cpu.dtb.write_misses                         0                       # DTB write misses
system.cpu.fetch.Branches                      222075                       # Number of branches that fetch encountered
system.cpu.fetch.CacheLines                     81050                       # Number of cache lines fetched
system.cpu.fetch.Cycles                       1863023                       # Number of cycles fetch has run and was not squashing or blocked
system.cpu.fetch.IcacheSquashes                   991                       # Number of outstanding Icache misses that were squashed
system.cpu.fetch.IcacheWaitRetryStallCycles           71                       # Number of stall cycles due to full MSHR
system.cpu.fetch.Insts                        1410938                       # Number of instructions fetch has processed
system.cpu.fetch.MiscStallCycles                    5                       # Number of cycles fetch has spent waiting on interrupts, or bad addresses, or out of MSHRs
system.cpu.fetch.SquashCycles                   11402                       # Number of cycles fetch has spent squashing
system.cpu.fetch.branchRate                  0.111313                       # Number of branch fetches per cycle
system.cpu.fetch.icacheStallCycles              93037                       # Number of cycles fetch is stalled on an Icache miss
system.cpu.fetch.predictedBranches             212937                       # Number of branches that fetch has predicted taken
system.cpu.fetch.rate                        0.707222                       # Number of inst fetches per cycle
system.cpu.fetch.rateDist::samples            1961837                       # Number of instructions fetched each cycle (Total)
system.cpu.fetch.rateDist::mean              0.728187                       # Number of instructions fetched each cycle (Total)
system.cpu.fetch.rateDist::stdev             1.843586                       # Number of instructions fetched each cycle (Total)
system.cpu.fetch.rateDist::underflows               0      0.00%      0.00% # Number of instructions fetched each cycle (Total)
system.cpu.fetch.rateDist::0                  1653239     84.27%     84.27% # Number of instructions fetched each cycle (Total)
system.cpu.fetch.rateDist::1                     8925      0.45%     84.72% # Number of instructions fetched each cycle (Total)
system.cpu.fetch.rateDist::2                    25940      1.32%     86.05% # Number of instructions fetched each cycle (Total)
system.cpu.fetch.rateDist::3                     1282      0.07%     86.11% # Number of instructions fetched each cycle (Total)
system.cpu.fetch.rateDist::4                   192912      9.83%     95.95% # Number of instructions fetched each cycle (Total)
system.cpu.fetch.rateDist::5                     8964      0.46%     96.40% # Number of instructions fetched each cycle (Total)
system.cpu.fetch.rateDist::6                     6748      0.34%     96.75% # Number of instructions fetched each cycle (Total)
system.cpu.fetch.rateDist::7                     3639      0.19%     96.93% # Number of instructions fetched each cycle (Total)
system.cpu.fetch.rateDist::8                    60188      3.07%    100.00% # Number of instructions fetched each cycle (Total)
system.cpu.fetch.rateDist::overflows                0      0.00%    100.00% # Number of instructions fetched each cycle (Total)
system.cpu.fetch.rateDist::min_value                0                       # Number of instructions fetched each cycle (Total)
system.cpu.fetch.rateDist::max_value                8                       # Number of instructions fetched each cycle (Total)
system.cpu.fetch.rateDist::total              1961837                       # Number of instructions fetched each cycle (Total)
system.cpu.idleCycles                           33205                       # Total number of cycles that the CPU has spent unscheduled due to idling
system.cpu.iew.branchMispredicts                 4528                       # Number of branch mispredicts detected at execute
system.cpu.iew.exec_branches                   188907                       # Number of branches executed
system.cpu.iew.exec_nop                            55                       # number of nop insts executed
system.cpu.iew.exec_rate                     0.627480                       # Inst execution rate
system.cpu.iew.exec_refs                       442169                       # number of memory reference insts executed
system.cpu.iew.exec_stores                     269959                       # Number of stores executed
system.cpu.iew.exec_swp                             0                       # number of swp insts executed
system.cpu.iew.iewBlockCycles                   31372                       # Number of cycles IEW is blocking
system.cpu.iew.iewDispLoadInsts                173458                       # Number of dispatched load instructions
system.cpu.iew.iewDispNonSpecInsts                 49                       # Number of dispatched non-speculative instructions
system.cpu.iew.iewDispSquashedInsts               220                       # Number of squashed instructions skipped by dispatch
system.cpu.iew.iewDispStoreInsts               275595                       # Number of dispatched store instructions
system.cpu.iew.iewDispatchedInsts             1276480                       # Number of instructions dispatched to IQ
system.cpu.iew.iewExecLoadInsts                172210                       # Number of load instructions executed
system.cpu.iew.iewExecSquashedInsts              9887                       # Number of squashed instructions skipped in execute
system.cpu.iew.iewExecutedInsts               1251848                       # Number of executed instructions
system.cpu.iew.iewIQFullEvents                     24                       # Number of times the IQ has become full, causing a stall
system.cpu.iew.iewIdleCycles                        0                       # Number of cycles IEW is idle
system.cpu.iew.iewLSQFullEvents                 81376                       # Number of times the LSQ has become full, causing a stall
system.cpu.iew.iewSquashCycles                   5503                       # Number of cycles IEW is squashing
system.cpu.iew.iewUnblockCycles                 81414                       # Number of cycles IEW is unblocking
system.cpu.iew.lsq.thread0.blockedLoads             0                       # Number of blocked loads due to partial load-store forwarding
system.cpu.iew.lsq.thread0.cacheBlocked         79348                       # Number of times an access to memory failed due to the cache being blocked
system.cpu.iew.lsq.thread0.forwLoads             2034                       # Number of loads that had data forwarded from stores
system.cpu.iew.lsq.thread0.ignoredResponses            4                       # Number of memory responses ignored because the instruction is squashed
system.cpu.iew.lsq.thread0.invAddrLoads             0                       # Number of loads ignored due to an invalid address
system.cpu.iew.lsq.thread0.invAddrSwpfs             0                       # Number of software prefetches ignored due to an invalid address
system.cpu.iew.lsq.thread0.memOrderViolation           13                       # Number of memory ordering violations
system.cpu.iew.lsq.thread0.rescheduledLoads           16                       # Number of loads that were rescheduled
system.cpu.iew.lsq.thread0.squashedLoads        11760                       # Number of loads squashed
system.cpu.iew.lsq.thread0.squashedStores        56726                       # Number of stores squashed
system.cpu.iew.memOrderViolationEvents             13                       # Number of memory order violations
system.cpu.iew.predictedNotTakenIncorrect         2092                       # Number of branches that were predicted not taken incorrectly
system.cpu.iew.predictedTakenIncorrect           2436                       # Number of branches that were predicted taken incorrectly
system.cpu.iew.wb_consumers                   1601575                       # num instructions consuming a value
system.cpu.iew.wb_count                       1195282                       # cumulative count of insts written-back
system.cpu.iew.wb_fanout                     0.421253                       # average fanout of values written-back
system.cpu.iew.wb_producers                    674669                       # num instructions producing a value
system.cpu.iew.wb_rate                       0.599126                       # insts written-back per cycle
system.cpu.iew.wb_sent                        1245043                       # cumulative count of insts sent to commit
system.cpu.int_regfile_reads                  1636060                       # number of integer regfile reads
system.cpu.int_regfile_writes                  788497                       # number of integer regfile writes
system.cpu.ipc                               0.501243                       # IPC: Instructions Per Cycle
system.cpu.ipc_total                         0.501243                       # IPC: Total IPC of All Threads
system.cpu.iq.FU_type_0::No_OpClass                 7      0.00%      0.00% # Type of FU issued
system.cpu.iq.FU_type_0::IntAlu                813090     64.44%     64.44% # Type of FU issued
system.cpu.iq.FU_type_0::IntMult                  635      0.05%     64.49% # Type of FU issued
system.cpu.iq.FU_type_0::IntDiv                     3      0.00%     64.49% # Type of FU issued
system.cpu.iq.FU_type_0::FloatAdd                   0      0.00%     64.49% # Type of FU issued
system.cpu.iq.FU_type_0::FloatCmp                   0      0.00%     64.49% # Type of FU issued
system.cpu.iq.FU_type_0::FloatCvt                   0      0.00%     64.49% # Type of FU issued
system.cpu.iq.FU_type_0::FloatMult                  0      0.00%     64.49% # Type of FU issued
system.cpu.iq.FU_type_0::FloatMultAcc               0      0.00%     64.49% # Type of FU issued
system.cpu.iq.FU_type_0::FloatDiv                   0      0.00%     64.49% # Type of FU issued
system.cpu.iq.FU_type_0::FloatMisc                  1      0.00%     64.49% # Type of FU issued
system.cpu.iq.FU_type_0::FloatSqrt                  0      0.00%     64.49% # Type of FU issued
system.cpu.iq.FU_type_0::SimdAdd                   27      0.00%     64.50% # Type of FU issued
system.cpu.iq.FU_type_0::SimdAddAcc                 0      0.00%     64.50% # Type of FU issued
system.cpu.iq.FU_type_0::SimdAlu                   28      0.00%     64.50% # Type of FU issued
system.cpu.iq.FU_type_0::SimdCmp                   28      0.00%     64.50% # Type of FU issued
system.cpu.iq.FU_type_0::SimdCvt                    0      0.00%     64.50% # Type of FU issued
system.cpu.iq.FU_type_0::SimdMisc                  25      0.00%     64.50% # Type of FU issued
system.cpu.iq.FU_type_0::SimdMult                   0      0.00%     64.50% # Type of FU issued
system.cpu.iq.FU_type_0::SimdMultAcc                0      0.00%     64.50% # Type of FU issued
system.cpu.iq.FU_type_0::SimdShift                  0      0.00%     64.50% # Type of FU issued
system.cpu.iq.FU_type_0::SimdShiftAcc               0      0.00%     64.50% # Type of FU issued
system.cpu.iq.FU_type_0::SimdDiv                    0      0.00%     64.50% # Type of FU issued
system.cpu.iq.FU_type_0::SimdSqrt                   0      0.00%     64.50% # Type of FU issued
system.cpu.iq.FU_type_0::SimdFloatAdd               0      0.00%     64.50% # Type of FU issued
system.cpu.iq.FU_type_0::SimdFloatAlu               0      0.00%     64.50% # Type of FU issued
system.cpu.iq.FU_type_0::SimdFloatCmp               0      0.00%     64.50% # Type of FU issued
system.cpu.iq.FU_type_0::SimdFloatCvt               0      0.00%     64.50% # Type of FU issued
system.cpu.iq.FU_type_0::SimdFloatDiv               0      0.00%     64.50% # Type of FU issued
system.cpu.iq.FU_type_0::SimdFloatMisc              0      0.00%     64.50% # Type of FU issued
system.cpu.iq.FU_type_0::SimdFloatMult              0      0.00%     64.50% # Type of FU issued
system.cpu.iq.FU_type_0::SimdFloatMultAcc            0      0.00%     64.50% # Type of FU issued
system.cpu.iq.FU_type_0::SimdFloatSqrt              0      0.00%     64.50% # Type of FU issued
system.cpu.iq.FU_type_0::SimdReduceAdd              0      0.00%     64.50% # Type of FU issued
system.cpu.iq.FU_type_0::SimdReduceAlu              0      0.00%     64.50% # Type of FU issued
system.cpu.iq.FU_type_0::SimdReduceCmp              0      0.00%     64.50% # Type of FU issued
system.cpu.iq.FU_type_0::SimdFloatReduceAdd            0      0.00%     64.50% # Type of FU issued
system.cpu.iq.FU_type_0::SimdFloatReduceCmp            0      0.00%     64.50% # Type of FU issued
system.cpu.iq.FU_type_0::SimdAes                    0      0.00%     64.50% # Type of FU issued
system.cpu.iq.FU_type_0::SimdAesMix                 0      0.00%     64.50% # Type of FU issued
system.cpu.iq.FU_type_0::SimdSha1Hash               0      0.00%     64.50% # Type of FU issued
system.cpu.iq.FU_type_0::SimdSha1Hash2              0      0.00%     64.50% # Type of FU issued
system.cpu.iq.FU_type_0::SimdSha256Hash             0      0.00%     64.50% # Type of FU issued
system.cpu.iq.FU_type_0::SimdSha256Hash2            0      0.00%     64.50% # Type of FU issued
system.cpu.iq.FU_type_0::SimdShaSigma2              0      0.00%     64.50% # Type of FU issued
system.cpu.iq.FU_type_0::SimdShaSigma3              0      0.00%     64.50% # Type of FU issued
system.cpu.iq.FU_type_0::SimdPredAlu                0      0.00%     64.50% # Type of FU issued
system.cpu.iq.FU_type_0::MemRead               173589     13.76%     78.26% # Type of FU issued
system.cpu.iq.FU_type_0::MemWrite              274303     21.74%    100.00% # Type of FU issued
system.cpu.iq.FU_type_0::FloatMemRead               0      0.00%    100.00% # Type of FU issued
system.cpu.iq.FU_type_0::FloatMemWrite              0      0.00%    100.00% # Type of FU issued
system.cpu.iq.FU_type_0::IprAccess                  0      0.00%    100.00% # Type of FU issued
system.cpu.iq.FU_type_0::InstPrefetch               0      0.00%    100.00% # Type of FU issued
system.cpu.iq.FU_type_0::total                1261736                       # Type of FU issued
system.cpu.iq.fp_alu_accesses                       0                       # Number of floating point alu accesses
system.cpu.iq.fp_inst_queue_reads                   0                       # Number of floating instruction queue reads
system.cpu.iq.fp_inst_queue_wakeup_accesses            0                       # Number of floating instruction queue wakeup accesses
system.cpu.iq.fp_inst_queue_writes                  0                       # Number of floating instruction queue writes
system.cpu.iq.fu_busy_cnt                       23957                       # FU busy when requested
system.cpu.iq.fu_busy_rate                   0.018987                       # FU busy rate (busy events/executed inst)
system.cpu.iq.fu_full::No_OpClass                   0      0.00%      0.00% # attempts to use FU when none available
system.cpu.iq.fu_full::IntAlu                    1487      6.21%      6.21% # attempts to use FU when none available
system.cpu.iq.fu_full::IntMult                      0      0.00%      6.21% # attempts to use FU when none available
system.cpu.iq.fu_full::IntDiv                       0      0.00%      6.21% # attempts to use FU when none available
system.cpu.iq.fu_full::FloatAdd                     0      0.00%      6.21% # attempts to use FU when none available
system.cpu.iq.fu_full::FloatCmp                     0      0.00%      6.21% # attempts to use FU when none available
system.cpu.iq.fu_full::FloatCvt                     0      0.00%      6.21% # attempts to use FU when none available
system.cpu.iq.fu_full::FloatMult                    0      0.00%      6.21% # attempts to use FU when none available
system.cpu.iq.fu_full::FloatMultAcc                 0      0.00%      6.21% # attempts to use FU when none available
system.cpu.iq.fu_full::FloatDiv                     0      0.00%      6.21% # attempts to use FU when none available
system.cpu.iq.fu_full::FloatMisc                    0      0.00%      6.21% # attempts to use FU when none available
system.cpu.iq.fu_full::FloatSqrt                    0      0.00%      6.21% # attempts to use FU when none available
system.cpu.iq.fu_full::SimdAdd                      0      0.00%      6.21% # attempts to use FU when none available
system.cpu.iq.fu_full::SimdAddAcc                   0      0.00%      6.21% # attempts to use FU when none available
system.cpu.iq.fu_full::SimdAlu                      2      0.01%      6.22% # attempts to use FU when none available
system.cpu.iq.fu_full::SimdCmp                      3      0.01%      6.23% # attempts to use FU when none available
system.cpu.iq.fu_full::SimdCvt                      0      0.00%      6.23% # attempts to use FU when none available
system.cpu.iq.fu_full::SimdMisc                     0      0.00%      6.23% # attempts to use FU when none available
system.cpu.iq.fu_full::SimdMult                     0      0.00%      6.23% # attempts to use FU when none available
system.cpu.iq.fu_full::SimdMultAcc                  0      0.00%      6.23% # attempts to use FU when none available
system.cpu.iq.fu_full::SimdShift                    0      0.00%      6.23% # attempts to use FU when none available
system.cpu.iq.fu_full::SimdShiftAcc                 0      0.00%      6.23% # attempts to use FU when none available
system.cpu.iq.fu_full::SimdDiv                      0      0.00%      6.23% # attempts to use FU when none available
system.cpu.iq.fu_full::SimdSqrt                     0      0.00%      6.23% # attempts to use FU when none available
system.cpu.iq.fu_full::SimdFloatAdd                 0      0.00%      6.23% # attempts to use FU when none available
system.cpu.iq.fu_full::SimdFloatAlu                 0      0.00%      6.23% # attempts to use FU when none available
system.cpu.iq.fu_full::SimdFloatCmp                 0      0.00%      6.23% # attempts to use FU when none available
system.cpu.iq.fu_full::SimdFloatCvt                 0      0.00%      6.23% # attempts to use FU when none available
system.cpu.iq.fu_full::SimdFloatDiv                 0      0.00%      6.23% # attempts to use FU when none available
system.cpu.iq.fu_full::SimdFloatMisc                0      0.00%      6.23% # attempts to use FU when none available
system.cpu.iq.fu_full::SimdFloatMult                0      0.00%      6.23% # attempts to use FU when none available
system.cpu.iq.fu_full::SimdFloatMultAcc             0      0.00%      6.23% # attempts to use FU when none available
system.cpu.iq.fu_full::SimdFloatSqrt                0      0.00%      6.23% # attempts to use FU when none available
system.cpu.iq.fu_full::SimdReduceAdd                0      0.00%      6.23% # attempts to use FU when none available
system.cpu.iq.fu_full::SimdReduceAlu                0      0.00%      6.23% # attempts to use FU when none available
system.cpu.iq.fu_full::SimdReduceCmp                0      0.00%      6.23% # attempts to use FU when none available
system.cpu.iq.fu_full::SimdFloatReduceAdd            0      0.00%      6.23% # attempts to use FU when none available
system.cpu.iq.fu_full::SimdFloatReduceCmp            0      0.00%      6.23% # attempts to use FU when none available
system.cpu.iq.fu_full::SimdAes                      0      0.00%      6.23% # attempts to use FU when none available
system.cpu.iq.fu_full::SimdAesMix                   0      0.00%      6.23% # attempts to use FU when none available
system.cpu.iq.fu_full::SimdSha1Hash                 0      0.00%      6.23% # attempts to use FU when none available
system.cpu.iq.fu_full::SimdSha1Hash2                0      0.00%      6.23% # attempts to use FU when none available
system.cpu.iq.fu_full::SimdSha256Hash               0      0.00%      6.23% # attempts to use FU when none available
system.cpu.iq.fu_full::SimdSha256Hash2              0      0.00%      6.23% # attempts to use FU when none available
system.cpu.iq.fu_full::SimdShaSigma2                0      0.00%      6.23% # attempts to use FU when none available
system.cpu.iq.fu_full::SimdShaSigma3                0      0.00%      6.23% # attempts to use FU when none available
system.cpu.iq.fu_full::SimdPredAlu                  0      0.00%      6.23% # attempts to use FU when none available
system.cpu.iq.fu_full::MemRead                  21709     90.62%     96.84% # attempts to use FU when none available
system.cpu.iq.fu_full::MemWrite                   756      3.16%    100.00% # attempts to use FU when none available
system.cpu.iq.fu_full::FloatMemRead                 0      0.00%    100.00% # attempts to use FU when none available
system.cpu.iq.fu_full::FloatMemWrite                0      0.00%    100.00% # attempts to use FU when none available
system.cpu.iq.fu_full::IprAccess                    0      0.00%    100.00% # attempts to use FU when none available
system.cpu.iq.fu_full::InstPrefetch                 0      0.00%    100.00% # attempts to use FU when none available
system.cpu.iq.int_alu_accesses                1285219                       # Number of integer alu accesses
system.cpu.iq.int_inst_queue_reads            4508612                       # Number of integer instruction queue reads
system.cpu.iq.int_inst_queue_wakeup_accesses      1194882                       # Number of integer instruction queue wakeup accesses
system.cpu.iq.int_inst_queue_writes           1545239                       # Number of integer instruction queue writes
system.cpu.iq.iqInstsAdded                    1276376                       # Number of instructions added to the IQ (excludes non-spec)
system.cpu.iq.iqInstsIssued                   1261736                       # Number of instructions issued
system.cpu.iq.iqNonSpecInstsAdded                  49                       # Number of non-speculative instructions added to the IQ
system.cpu.iq.iqSquashedInstsExamined          269476                       # Number of squashed instructions iterated over during squash; mainly for profiling
system.cpu.iq.iqSquashedInstsIssued               274                       # Number of squashed instructions issued
system.cpu.iq.iqSquashedNonSpecRemoved             18                       # Number of squashed non-spec instructions that were removed
system.cpu.iq.iqSquashedOperandsExamined       285421                       # Number of squashed operands that are examined and possibly removed from graph
system.cpu.iq.issued_per_cycle::samples       1961837                       # Number of insts issued each cycle
system.cpu.iq.issued_per_cycle::mean         0.643140                       # Number of insts issued each cycle
system.cpu.iq.issued_per_cycle::stdev        1.416478                       # Number of insts issued each cycle
system.cpu.iq.issued_per_cycle::underflows            0      0.00%      0.00% # Number of insts issued each cycle
system.cpu.iq.issued_per_cycle::0             1526398     77.80%     77.80% # Number of insts issued each cycle
system.cpu.iq.issued_per_cycle::1              131112      6.68%     84.49% # Number of insts issued each cycle
system.cpu.iq.issued_per_cycle::2               37704      1.92%     86.41% # Number of insts issued each cycle
system.cpu.iq.issued_per_cycle::3              103305      5.27%     91.68% # Number of insts issued each cycle
system.cpu.iq.issued_per_cycle::4              106477      5.43%     97.10% # Number of insts issued each cycle
system.cpu.iq.issued_per_cycle::5               30613      1.56%     98.66% # Number of insts issued each cycle
system.cpu.iq.issued_per_cycle::6               20468      1.04%     99.71% # Number of insts issued each cycle
system.cpu.iq.issued_per_cycle::7                2560      0.13%     99.84% # Number of insts issued each cycle
system.cpu.iq.issued_per_cycle::8                3200      0.16%    100.00% # Number of insts issued each cycle
system.cpu.iq.issued_per_cycle::overflows            0      0.00%    100.00% # Number of insts issued each cycle
system.cpu.iq.issued_per_cycle::min_value            0                       # Number of insts issued each cycle
system.cpu.iq.issued_per_cycle::max_value            8                       # Number of insts issued each cycle
system.cpu.iq.issued_per_cycle::total         1961837                       # Number of insts issued each cycle
system.cpu.iq.rate                           0.632436                       # Inst issue rate
system.cpu.iq.vec_alu_accesses                    467                       # Number of vector alu accesses
system.cpu.iq.vec_inst_queue_reads                927                       # Number of vector instruction queue reads
system.cpu.iq.vec_inst_queue_wakeup_accesses          400                       # Number of vector instruction queue wakeup accesses
system.cpu.iq.vec_inst_queue_writes               675                       # Number of vector instruction queue writes
system.cpu.itb.accesses                             0                       # DTB accesses
system.cpu.itb.align_faults                         0                       # Number of TLB faults due to alignment restrictions
system.cpu.itb.domain_faults                        0                       # Number of TLB faults due to domain restrictions
system.cpu.itb.flush_entries                        0                       # Number of entries that have been flushed from TLB
system.cpu.itb.flush_tlb                            0                       # Number of times complete TLB was flushed
system.cpu.itb.flush_tlb_asid                       0                       # Number of times TLB was flushed by ASID
system.cpu.itb.flush_tlb_mva                        0                       # Number of times TLB was flushed by MVA
system.cpu.itb.flush_tlb_mva_asid                   0                       # Number of times TLB was flushed by MVA & ASID
system.cpu.itb.hits                                 0                       # DTB hits
system.cpu.itb.inst_accesses                        0                       # ITB inst accesses
system.cpu.itb.inst_hits                            0                       # ITB inst hits
system.cpu.itb.inst_misses                          0                       # ITB inst misses
system.cpu.itb.misses                               0                       # DTB misses
system.cpu.itb.perms_faults                         0                       # Number of TLB faults due to permissions restrictions
system.cpu.itb.prefetch_faults                      0                       # Number of TLB faults due to prefetch
system.cpu.itb.read_accesses                        0                       # DTB read accesses
system.cpu.itb.read_hits                            0                       # DTB read hits
system.cpu.itb.read_misses                          0                       # DTB read misses
system.cpu.itb.stage2_mmu.stage2_tlb.accesses            0                       # DTB accesses
system.cpu.itb.stage2_mmu.stage2_tlb.align_faults            0                       # Number of TLB faults due to alignment restrictions
system.cpu.itb.stage2_mmu.stage2_tlb.domain_faults            0                       # Number of TLB faults due to domain restrictions
system.cpu.itb.stage2_mmu.stage2_tlb.flush_entries            0                       # Number of entries that have been flushed from TLB
system.cpu.itb.stage2_mmu.stage2_tlb.flush_tlb            0                       # Number of times complete TLB was flushed
system.cpu.itb.stage2_mmu.stage2_tlb.flush_tlb_asid            0                       # Number of times TLB was flushed by ASID
system.cpu.itb.stage2_mmu.stage2_tlb.flush_tlb_mva            0                       # Number of times TLB was flushed by MVA
system.cpu.itb.stage2_mmu.stage2_tlb.flush_tlb_mva_asid            0                       # Number of times TLB was flushed by MVA & ASID
system.cpu.itb.stage2_mmu.stage2_tlb.hits            0                       # DTB hits
system.cpu.itb.stage2_mmu.stage2_tlb.inst_accesses            0                       # ITB inst accesses
system.cpu.itb.stage2_mmu.stage2_tlb.inst_hits            0                       # ITB inst hits
system.cpu.itb.stage2_mmu.stage2_tlb.inst_misses            0                       # ITB inst misses
system.cpu.itb.stage2_mmu.stage2_tlb.misses            0                       # DTB misses
system.cpu.itb.stage2_mmu.stage2_tlb.perms_faults            0                       # Number of TLB faults due to permissions restrictions
system.cpu.itb.stage2_mmu.stage2_tlb.prefetch_faults            0                       # Number of TLB faults due to prefetch
system.cpu.itb.stage2_mmu.stage2_tlb.read_accesses            0                       # DTB read accesses
system.cpu.itb.stage2_mmu.stage2_tlb.read_hits            0                       # DTB read hits
system.cpu.itb.stage2_mmu.stage2_tlb.read_misses            0                       # DTB read misses
system.cpu.itb.stage2_mmu.stage2_tlb.walker.walkRequestOrigin_Requested::Data            0                       # Table walker requests started/completed, data/inst
system.cpu.itb.stage2_mmu.stage2_tlb.walker.walkRequestOrigin_Requested::Inst            0                       # Table walker requests started/completed, data/inst
system.cpu.itb.stage2_mmu.stage2_tlb.walker.walkRequestOrigin_Requested::total            0                       # Table walker requests started/completed, data/inst
system.cpu.itb.stage2_mmu.stage2_tlb.walker.walkRequestOrigin_Completed::Data            0                       # Table walker requests started/completed, data/inst
system.cpu.itb.stage2_mmu.stage2_tlb.walker.walkRequestOrigin_Completed::Inst            0                       # Table walker requests started/completed, data/inst
system.cpu.itb.stage2_mmu.stage2_tlb.walker.walkRequestOrigin_Completed::total            0                       # Table walker requests started/completed, data/inst
system.cpu.itb.stage2_mmu.stage2_tlb.walker.walkRequestOrigin::total            0                       # Table walker requests started/completed, data/inst
system.cpu.itb.stage2_mmu.stage2_tlb.walker.walks            0                       # Table walker walks requested
system.cpu.itb.stage2_mmu.stage2_tlb.write_accesses            0                       # DTB write accesses
system.cpu.itb.stage2_mmu.stage2_tlb.write_hits            0                       # DTB write hits
system.cpu.itb.stage2_mmu.stage2_tlb.write_misses            0                       # DTB write misses
system.cpu.itb.walker.walkRequestOrigin_Requested::Data            0                       # Table walker requests started/completed, data/inst
system.cpu.itb.walker.walkRequestOrigin_Requested::Inst            0                       # Table walker requests started/completed, data/inst
system.cpu.itb.walker.walkRequestOrigin_Requested::total            0                       # Table walker requests started/completed, data/inst
system.cpu.itb.walker.walkRequestOrigin_Completed::Data            0                       # Table walker requests started/completed, data/inst
system.cpu.itb.walker.walkRequestOrigin_Completed::Inst            0                       # Table walker requests started/completed, data/inst
system.cpu.itb.walker.walkRequestOrigin_Completed::total            0                       # Table walker requests started/completed, data/inst
system.cpu.itb.walker.walkRequestOrigin::total            0                       # Table walker requests started/completed, data/inst
system.cpu.itb.walker.walks                         0                       # Table walker walks requested
system.cpu.itb.write_accesses                       0                       # DTB write accesses
system.cpu.itb.write_hits                           0                       # DTB write hits
system.cpu.itb.write_misses                         0                       # DTB write misses
system.cpu.memDep0.conflictingLoads              4956                       # Number of conflicting loads.
system.cpu.memDep0.conflictingStores             2488                       # Number of conflicting stores.
system.cpu.memDep0.insertedLoads               173458                       # Number of loads inserted to the mem dependence unit.
system.cpu.memDep0.insertedStores              275595                       # Number of stores inserted to the mem dependence unit.
system.cpu.misc_regfile_reads                 1911007                       # number of misc regfile reads
system.cpu.misc_regfile_writes                     81                       # number of misc regfile writes
system.cpu.numCycles                          1995042                       # number of cpu cycles simulated
system.cpu.numWorkItemsCompleted                    0                       # number of work items this cpu completed
system.cpu.numWorkItemsStarted                      0                       # number of work items this cpu started
system.cpu.rename.BlockCycles                  113290                       # Number of cycles rename is blocking
system.cpu.rename.CommittedMaps               1270067                       # Number of HB maps that are committed
system.cpu.rename.IQFullEvents                   5974                       # Number of times rename has blocked due to IQ full
system.cpu.rename.IdleCycles                   119809                       # Number of cycles rename is idle
system.cpu.rename.LQFullEvents                    364                       # Number of times rename has blocked due to LQ full
system.cpu.rename.ROBFullEvents                    11                       # Number of times rename has blocked due to ROB full
system.cpu.rename.RenameLookups               3079021                       # Number of register rename lookups that rename has made
system.cpu.rename.RenamedInsts                1306924                       # Number of instructions processed by rename
system.cpu.rename.RenamedOperands             1627773                       # Number of destination operands rename has renamed
system.cpu.rename.RunCycles                    196226                       # Number of cycles rename is running
system.cpu.rename.SQFullEvents                1513906                       # Number of times rename has blocked due to SQ full
system.cpu.rename.SquashCycles                   5503                       # Number of cycles rename is squashing
system.cpu.rename.UnblockCycles               1522603                       # Number of cycles rename is unblocking
system.cpu.rename.UndoneMaps                   357691                       # Number of HB maps that are undone due to squashing
system.cpu.rename.int_rename_lookups          1710417                       # Number of integer rename lookups
system.cpu.rename.serializeStallCycles           4406                       # count of cycles rename stalled for serializing inst
system.cpu.rename.serializingInsts                109                       # count of serializing insts renamed
system.cpu.rename.skidInsts                    377049                       # count of insts added to the skid buffer
system.cpu.rename.tempSerializingInsts             51                       # count of temporary serializing insts renamed
system.cpu.rename.vec_rename_lookups              612                       # Number of vector rename lookups
system.cpu.rob.rob_reads                      3131039                       # The number of ROB reads
system.cpu.rob.rob_writes                     2576433                       # The number of ROB writes
system.cpu.timesIdled                             335                       # Number of times that the entire CPU went into an idle state and unscheduled itself
system.cpu.vec_regfile_reads                      455                       # number of vector regfile reads
system.cpu.vec_regfile_writes                     126                       # number of vector regfile writes
system.cpu.workload.numSyscalls                    10                       # Number of system calls
system.membus.snoop_filter.hit_multi_requests            0                       # Number of requests hitting in the snoop filter with multiple (>1) holders of the requested data.
system.membus.snoop_filter.hit_multi_snoops            0                       # Number of snoops hitting in the snoop filter with multiple (>1) holders of the requested data.
system.membus.snoop_filter.hit_single_requests        65157                       # Number of requests hitting in the snoop filter with a single holder of the requested data.
system.membus.snoop_filter.hit_single_snoops            0                       # Number of snoops hitting in the snoop filter with a single holder of the requested data.
system.membus.snoop_filter.tot_requests        164338                       # Total number of requests made to the snoop filter.
system.membus.snoop_filter.tot_snoops               0                       # Total number of snoops made to the snoop filter.
system.tol2bus.snoop_filter.hit_multi_requests            1                       # Number of requests hitting in the snoop filter with multiple (>1) holders of the requested data.
system.tol2bus.snoop_filter.hit_multi_snoops            0                       # Number of snoops hitting in the snoop filter with multiple (>1) holders of the requested data.
system.tol2bus.snoop_filter.hit_single_requests        97980                       # Number of requests hitting in the snoop filter with a single holder of the requested data.
system.tol2bus.snoop_filter.hit_single_snoops          248                       # Number of snoops hitting in the snoop filter with a single holder of the requested data.
system.tol2bus.snoop_filter.tot_requests       197237                       # Total number of requests made to the snoop filter.
system.tol2bus.snoop_filter.tot_snoops            248                       # Total number of snoops made to the snoop filter.
system.membus.trans_dist::ReadResp                543                       # Transaction distribution
system.membus.trans_dist::WritebackDirty        64860                       # Transaction distribution
system.membus.trans_dist::CleanEvict              276                       # Transaction distribution
system.membus.trans_dist::ReadExReq              2718                       # Transaction distribution
system.membus.trans_dist::ReadExResp             2718                       # Transaction distribution
system.membus.trans_dist::ReadSharedReq           543                       # Transaction distribution
system.membus.trans_dist::InvalidateReq         95920                       # Transaction distribution
system.membus.pkt_count_system.l2.mem_side::system.mem_ctrls.port       167578                       # Packet count per connected master and slave (bytes)
system.membus.pkt_count::total                 167578                       # Packet count per connected master and slave (bytes)
system.membus.pkt_size_system.l2.mem_side::system.mem_ctrls.port      4359744                       # Cumulative packet size per connected master and slave (bytes)
system.membus.pkt_size::total                 4359744                       # Cumulative packet size per connected master and slave (bytes)
system.membus.snoops                                0                       # Total snoops (count)
system.membus.snoopTraffic                          0                       # Total snoop traffic (bytes)
system.membus.snoop_fanout::samples             99181                       # Request fanout histogram
system.membus.snoop_fanout::mean                    0                       # Request fanout histogram
system.membus.snoop_fanout::stdev                   0                       # Request fanout histogram
system.membus.snoop_fanout::underflows              0      0.00%      0.00% # Request fanout histogram
system.membus.snoop_fanout::0                   99181    100.00%    100.00% # Request fanout histogram
system.membus.snoop_fanout::1                       0      0.00%    100.00% # Request fanout histogram
system.membus.snoop_fanout::overflows               0      0.00%    100.00% # Request fanout histogram
system.membus.snoop_fanout::min_value               0                       # Request fanout histogram
system.membus.snoop_fanout::max_value               0                       # Request fanout histogram
system.membus.snoop_fanout::total               99181                       # Request fanout histogram
system.membus.reqLayer0.occupancy           434230500                       # Layer occupancy (ticks)
system.membus.reqLayer0.utilization              43.5                       # Layer utilization (%)
system.membus.respLayer1.occupancy           17336000                       # Layer occupancy (ticks)
system.membus.respLayer1.utilization              1.7                       # Layer utilization (%)
system.membus.power_state.pwrStateResidencyTicks::UNDEFINED    997520500                       # Cumulative time (in ticks) in various power states
system.tol2bus.trans_dist::ReadResp               597                       # Transaction distribution
system.tol2bus.trans_dist::WritebackDirty       162527                       # Transaction distribution
system.tol2bus.trans_dist::WritebackClean          210                       # Transaction distribution
system.tol2bus.trans_dist::CleanEvict             630                       # Transaction distribution
system.tol2bus.trans_dist::ReadExReq             2736                       # Transaction distribution
system.tol2bus.trans_dist::ReadExResp            2736                       # Transaction distribution
system.tol2bus.trans_dist::ReadCleanReq           458                       # Transaction distribution
system.tol2bus.trans_dist::ReadSharedReq          139                       # Transaction distribution
system.tol2bus.trans_dist::InvalidateReq        95924                       # Transaction distribution
system.tol2bus.trans_dist::InvalidateResp        95921                       # Transaction distribution
system.tol2bus.pkt_count_system.cpu.icache.mem_side::system.l2.cpu_side         1126                       # Packet count per connected master and slave (bytes)
system.tol2bus.pkt_count_system.cpu.dcache.mem_side::system.l2.cpu_side       295365                       # Packet count per connected master and slave (bytes)
system.tol2bus.pkt_count::total                296491                       # Packet count per connected master and slave (bytes)
system.tol2bus.pkt_size_system.cpu.icache.mem_side::system.l2.cpu_side        42752                       # Cumulative packet size per connected master and slave (bytes)
system.tol2bus.pkt_size_system.cpu.dcache.mem_side::system.l2.cpu_side      6434496                       # Cumulative packet size per connected master and slave (bytes)
system.tol2bus.pkt_size::total                6477248                       # Cumulative packet size per connected master and slave (bytes)
system.tol2bus.snoops                           65387                       # Total snoops (count)
system.tol2bus.snoopTraffic                   4151232                       # Total snoop traffic (bytes)
system.tol2bus.snoop_fanout::samples           164644                       # Request fanout histogram
system.tol2bus.snoop_fanout::mean            0.001512                       # Request fanout histogram
system.tol2bus.snoop_fanout::stdev           0.038860                       # Request fanout histogram
system.tol2bus.snoop_fanout::underflows             0      0.00%      0.00% # Request fanout histogram
system.tol2bus.snoop_fanout::0                 164395     99.85%     99.85% # Request fanout histogram
system.tol2bus.snoop_fanout::1                    249      0.15%    100.00% # Request fanout histogram
system.tol2bus.snoop_fanout::2                      0      0.00%    100.00% # Request fanout histogram
system.tol2bus.snoop_fanout::overflows              0      0.00%    100.00% # Request fanout histogram
system.tol2bus.snoop_fanout::min_value              0                       # Request fanout histogram
system.tol2bus.snoop_fanout::max_value              1                       # Request fanout histogram
system.tol2bus.snoop_fanout::total             164644                       # Request fanout histogram
system.tol2bus.reqLayer0.occupancy          196492500                       # Layer occupancy (ticks)
system.tol2bus.reqLayer0.utilization             19.7                       # Layer utilization (%)
system.tol2bus.respLayer1.occupancy          52273000                       # Layer occupancy (ticks)
system.tol2bus.respLayer1.utilization             5.2                       # Layer utilization (%)
system.tol2bus.respLayer0.occupancy            687499                       # Layer occupancy (ticks)
system.tol2bus.respLayer0.utilization             0.1                       # Layer utilization (%)
system.tol2bus.power_state.pwrStateResidencyTicks::UNDEFINED    997520500                       # Cumulative time (in ticks) in various power states
system.voltage_domain.voltage                       1                       # Voltage in Volts
system.clk_domain.clock                          1000                       # Clock period in ticks
system.l2.demand_hits::.cpu.inst                   37                       # number of demand (read+write) hits
system.l2.demand_hits::.cpu.data                   35                       # number of demand (read+write) hits
system.l2.demand_hits::total                       72                       # number of demand (read+write) hits
system.l2.overall_hits::.cpu.inst                  37                       # number of overall hits
system.l2.overall_hits::.cpu.data                  35                       # number of overall hits
system.l2.overall_hits::total                      72                       # number of overall hits
system.l2.demand_misses::.cpu.inst                421                       # number of demand (read+write) misses
system.l2.demand_misses::.cpu.data               2840                       # number of demand (read+write) misses
system.l2.demand_misses::total                   3261                       # number of demand (read+write) misses
system.l2.overall_misses::.cpu.inst               421                       # number of overall misses
system.l2.overall_misses::.cpu.data              2840                       # number of overall misses
system.l2.overall_misses::total                  3261                       # number of overall misses
system.l2.demand_miss_latency::.cpu.inst     33035000                       # number of demand (read+write) miss cycles
system.l2.demand_miss_latency::.cpu.data    224168500                       # number of demand (read+write) miss cycles
system.l2.demand_miss_latency::total        257203500                       # number of demand (read+write) miss cycles
system.l2.overall_miss_latency::.cpu.inst     33035000                       # number of overall miss cycles
system.l2.overall_miss_latency::.cpu.data    224168500                       # number of overall miss cycles
system.l2.overall_miss_latency::total       257203500                       # number of overall miss cycles
system.l2.demand_accesses::.cpu.inst              458                       # number of demand (read+write) accesses
system.l2.demand_accesses::.cpu.data             2875                       # number of demand (read+write) accesses
system.l2.demand_accesses::total                 3333                       # number of demand (read+write) accesses
system.l2.overall_accesses::.cpu.inst             458                       # number of overall (read+write) accesses
system.l2.overall_accesses::.cpu.data            2875                       # number of overall (read+write) accesses
system.l2.overall_accesses::total                3333                       # number of overall (read+write) accesses
system.l2.demand_miss_rate::.cpu.inst        0.919214                       # miss rate for demand accesses
system.l2.demand_miss_rate::.cpu.data        0.987826                       # miss rate for demand accesses
system.l2.demand_miss_rate::total            0.978398                       # miss rate for demand accesses
system.l2.overall_miss_rate::.cpu.inst       0.919214                       # miss rate for overall accesses
system.l2.overall_miss_rate::.cpu.data       0.987826                       # miss rate for overall accesses
system.l2.overall_miss_rate::total           0.978398                       # miss rate for overall accesses
system.l2.demand_avg_miss_latency::.cpu.inst 78467.933492                       # average overall miss latency
system.l2.demand_avg_miss_latency::.cpu.data 78932.570423                       # average overall miss latency
system.l2.demand_avg_miss_latency::total 78872.585097                       # average overall miss latency
system.l2.overall_avg_miss_latency::.cpu.inst 78467.933492                       # average overall miss latency
system.l2.overall_avg_miss_latency::.cpu.data 78932.570423                       # average overall miss latency
system.l2.overall_avg_miss_latency::total 78872.585097                       # average overall miss latency
system.l2.blocked_cycles::no_mshrs                  0                       # number of cycles access was blocked
system.l2.blocked_cycles::no_targets                0                       # number of cycles access was blocked
system.l2.blocked::no_mshrs                         0                       # number of cycles access was blocked
system.l2.blocked::no_targets                       0                       # number of cycles access was blocked
system.l2.avg_blocked_cycles::no_mshrs            nan                       # average number of cycles each access was blocked
system.l2.avg_blocked_cycles::no_targets          nan                       # average number of cycles each access was blocked
system.l2.writebacks::.writebacks               64863                       # number of writebacks
system.l2.writebacks::total                     64863                       # number of writebacks
system.l2.demand_mshr_misses::.cpu.inst           421                       # number of demand (read+write) MSHR misses
system.l2.demand_mshr_misses::.cpu.data          2840                       # number of demand (read+write) MSHR misses
system.l2.demand_mshr_misses::total              3261                       # number of demand (read+write) MSHR misses
system.l2.overall_mshr_misses::.cpu.inst          421                       # number of overall MSHR misses
system.l2.overall_mshr_misses::.cpu.data         2840                       # number of overall MSHR misses
system.l2.overall_mshr_misses::total             3261                       # number of overall MSHR misses
system.l2.demand_mshr_miss_latency::.cpu.inst     28825000                       # number of demand (read+write) MSHR miss cycles
system.l2.demand_mshr_miss_latency::.cpu.data    195768500                       # number of demand (read+write) MSHR miss cycles
system.l2.demand_mshr_miss_latency::total    224593500                       # number of demand (read+write) MSHR miss cycles
system.l2.overall_mshr_miss_latency::.cpu.inst     28825000                       # number of overall MSHR miss cycles
system.l2.overall_mshr_miss_latency::.cpu.data    195768500                       # number of overall MSHR miss cycles
system.l2.overall_mshr_miss_latency::total    224593500                       # number of overall MSHR miss cycles
system.l2.demand_mshr_miss_rate::.cpu.inst     0.919214                       # mshr miss rate for demand accesses
system.l2.demand_mshr_miss_rate::.cpu.data     0.987826                       # mshr miss rate for demand accesses
system.l2.demand_mshr_miss_rate::total       0.978398                       # mshr miss rate for demand accesses
system.l2.overall_mshr_miss_rate::.cpu.inst     0.919214                       # mshr miss rate for overall accesses
system.l2.overall_mshr_miss_rate::.cpu.data     0.987826                       # mshr miss rate for overall accesses
system.l2.overall_mshr_miss_rate::total      0.978398                       # mshr miss rate for overall accesses
system.l2.demand_avg_mshr_miss_latency::.cpu.inst 68467.933492                       # average overall mshr miss latency
system.l2.demand_avg_mshr_miss_latency::.cpu.data 68932.570423                       # average overall mshr miss latency
system.l2.demand_avg_mshr_miss_latency::total 68872.585097                       # average overall mshr miss latency
system.l2.overall_avg_mshr_miss_latency::.cpu.inst 68467.933492                       # average overall mshr miss latency
system.l2.overall_avg_mshr_miss_latency::.cpu.data 68932.570423                       # average overall mshr miss latency
system.l2.overall_avg_mshr_miss_latency::total 68872.585097                       # average overall mshr miss latency
system.l2.replacements                          65387                       # number of replacements
system.l2.WritebackDirty_hits::.writebacks        97664                       # number of WritebackDirty hits
system.l2.WritebackDirty_hits::total            97664                       # number of WritebackDirty hits
system.l2.WritebackDirty_accesses::.writebacks        97664                       # number of WritebackDirty accesses(hits+misses)
system.l2.WritebackDirty_accesses::total        97664                       # number of WritebackDirty accesses(hits+misses)
system.l2.WritebackClean_hits::.writebacks          210                       # number of WritebackClean hits
system.l2.WritebackClean_hits::total              210                       # number of WritebackClean hits
system.l2.WritebackClean_accesses::.writebacks          210                       # number of WritebackClean accesses(hits+misses)
system.l2.WritebackClean_accesses::total          210                       # number of WritebackClean accesses(hits+misses)
system.l2.ReadExReq_hits::.cpu.data                18                       # number of ReadExReq hits
system.l2.ReadExReq_hits::total                    18                       # number of ReadExReq hits
system.l2.ReadExReq_misses::.cpu.data            2718                       # number of ReadExReq misses
system.l2.ReadExReq_misses::total                2718                       # number of ReadExReq misses
system.l2.ReadExReq_miss_latency::.cpu.data    213718500                       # number of ReadExReq miss cycles
system.l2.ReadExReq_miss_latency::total     213718500                       # number of ReadExReq miss cycles
system.l2.ReadExReq_accesses::.cpu.data          2736                       # number of ReadExReq accesses(hits+misses)
system.l2.ReadExReq_accesses::total              2736                       # number of ReadExReq accesses(hits+misses)
system.l2.ReadExReq_miss_rate::.cpu.data     0.993421                       # miss rate for ReadExReq accesses
system.l2.ReadExReq_miss_rate::total         0.993421                       # miss rate for ReadExReq accesses
system.l2.ReadExReq_avg_miss_latency::.cpu.data 78630.794702                       # average ReadExReq miss latency
system.l2.ReadExReq_avg_miss_latency::total 78630.794702                       # average ReadExReq miss latency
system.l2.ReadExReq_mshr_misses::.cpu.data         2718                       # number of ReadExReq MSHR misses
system.l2.ReadExReq_mshr_misses::total           2718                       # number of ReadExReq MSHR misses
system.l2.ReadExReq_mshr_miss_latency::.cpu.data    186538500                       # number of ReadExReq MSHR miss cycles
system.l2.ReadExReq_mshr_miss_latency::total    186538500                       # number of ReadExReq MSHR miss cycles
system.l2.ReadExReq_mshr_miss_rate::.cpu.data     0.993421                       # mshr miss rate for ReadExReq accesses
system.l2.ReadExReq_mshr_miss_rate::total     0.993421                       # mshr miss rate for ReadExReq accesses
system.l2.ReadExReq_avg_mshr_miss_latency::.cpu.data 68630.794702                       # average ReadExReq mshr miss latency
system.l2.ReadExReq_avg_mshr_miss_latency::total 68630.794702                       # average ReadExReq mshr miss latency
system.l2.ReadCleanReq_hits::.cpu.inst             37                       # number of ReadCleanReq hits
system.l2.ReadCleanReq_hits::total                 37                       # number of ReadCleanReq hits
system.l2.ReadCleanReq_misses::.cpu.inst          421                       # number of ReadCleanReq misses
system.l2.ReadCleanReq_misses::total              421                       # number of ReadCleanReq misses
system.l2.ReadCleanReq_miss_latency::.cpu.inst     33035000                       # number of ReadCleanReq miss cycles
system.l2.ReadCleanReq_miss_latency::total     33035000                       # number of ReadCleanReq miss cycles
system.l2.ReadCleanReq_accesses::.cpu.inst          458                       # number of ReadCleanReq accesses(hits+misses)
system.l2.ReadCleanReq_accesses::total            458                       # number of ReadCleanReq accesses(hits+misses)
system.l2.ReadCleanReq_miss_rate::.cpu.inst     0.919214                       # miss rate for ReadCleanReq accesses
system.l2.ReadCleanReq_miss_rate::total      0.919214                       # miss rate for ReadCleanReq accesses
system.l2.ReadCleanReq_avg_miss_latency::.cpu.inst 78467.933492                       # average ReadCleanReq miss latency
system.l2.ReadCleanReq_avg_miss_latency::total 78467.933492                       # average ReadCleanReq miss latency
system.l2.ReadCleanReq_mshr_misses::.cpu.inst          421                       # number of ReadCleanReq MSHR misses
system.l2.ReadCleanReq_mshr_misses::total          421                       # number of ReadCleanReq MSHR misses
system.l2.ReadCleanReq_mshr_miss_latency::.cpu.inst     28825000                       # number of ReadCleanReq MSHR miss cycles
system.l2.ReadCleanReq_mshr_miss_latency::total     28825000                       # number of ReadCleanReq MSHR miss cycles
system.l2.ReadCleanReq_mshr_miss_rate::.cpu.inst     0.919214                       # mshr miss rate for ReadCleanReq accesses
[...]
system.cpu.dcache.overall_misses::.cpu.data       117728                       # number of overall misses
system.cpu.dcache.overall_misses::total        117728                       # number of overall misses
system.cpu.dcache.demand_miss_latency::.cpu.data   4494970713                       # number of demand (read+write) miss cycles
system.cpu.dcache.demand_miss_latency::total   4494970713                       # number of demand (read+write) miss cycles
system.cpu.dcache.overall_miss_latency::.cpu.data   4494970713                       # number of overall miss cycles
system.cpu.dcache.overall_miss_latency::total   4494970713                       # number of overall miss cycles
system.cpu.dcache.demand_accesses::.cpu.data       387428                       # number of demand (read+write) accesses
system.cpu.dcache.demand_accesses::total       387428                       # number of demand (read+write) accesses
system.cpu.dcache.overall_accesses::.cpu.data       387436                       # number of overall (read+write) accesses
system.cpu.dcache.overall_accesses::total       387436                       # number of overall (read+write) accesses
system.cpu.dcache.demand_miss_rate::.cpu.data     0.303863                       # miss rate for demand accesses
system.cpu.dcache.demand_miss_rate::total     0.303863                       # miss rate for demand accesses
system.cpu.dcache.overall_miss_rate::.cpu.data     0.303864                       # miss rate for overall accesses
system.cpu.dcache.overall_miss_rate::total     0.303864                       # miss rate for overall accesses
system.cpu.dcache.demand_avg_miss_latency::.cpu.data 38181.955515                       # average overall miss latency
system.cpu.dcache.demand_avg_miss_latency::total 38181.955515                       # average overall miss latency
system.cpu.dcache.overall_avg_miss_latency::.cpu.data 38180.982545                       # average overall miss latency
system.cpu.dcache.overall_avg_miss_latency::total 38180.982545                       # average overall miss latency
system.cpu.dcache.blocked_cycles::no_mshrs      1475433                       # number of cycles access was blocked
system.cpu.dcache.blocked_cycles::no_targets            0                       # number of cycles access was blocked
system.cpu.dcache.blocked::no_mshrs             91856                       # number of cycles access was blocked
system.cpu.dcache.blocked::no_targets               0                       # number of cycles access was blocked
system.cpu.dcache.avg_blocked_cycles::no_mshrs    16.062456                       # average number of cycles each access was blocked
system.cpu.dcache.avg_blocked_cycles::no_targets          nan                       # average number of cycles each access was blocked
system.cpu.dcache.writebacks::.writebacks        97666                       # number of writebacks
system.cpu.dcache.writebacks::total             97666                       # number of writebacks
system.cpu.dcache.demand_mshr_hits::.cpu.data        18930                       # number of demand (read+write) MSHR hits
system.cpu.dcache.demand_mshr_hits::total        18930                       # number of demand (read+write) MSHR hits
system.cpu.dcache.overall_mshr_hits::.cpu.data        18930                       # number of overall MSHR hits
system.cpu.dcache.overall_mshr_hits::total        18930                       # number of overall MSHR hits
system.cpu.dcache.demand_mshr_misses::.cpu.data        98795                       # number of demand (read+write) MSHR misses
system.cpu.dcache.demand_mshr_misses::total        98795                       # number of demand (read+write) MSHR misses
system.cpu.dcache.overall_mshr_misses::.cpu.data        98798                       # number of overall MSHR misses
system.cpu.dcache.overall_mshr_misses::total        98798                       # number of overall MSHR misses
system.cpu.dcache.demand_mshr_miss_latency::.cpu.data   3300385062                       # number of demand (read+write) MSHR miss cycles
system.cpu.dcache.demand_mshr_miss_latency::total   3300385062                       # number of demand (read+write) MSHR miss cycles
system.cpu.dcache.overall_mshr_miss_latency::.cpu.data   3300647062                       # number of overall MSHR miss cycles
system.cpu.dcache.overall_mshr_miss_latency::total   3300647062                       # number of overall MSHR miss cycles
system.cpu.dcache.demand_mshr_miss_rate::.cpu.data     0.255002                       # mshr miss rate for demand accesses
system.cpu.dcache.demand_mshr_miss_rate::total     0.255002                       # mshr miss rate for demand accesses
system.cpu.dcache.overall_mshr_miss_rate::.cpu.data     0.255005                       # mshr miss rate for overall accesses
system.cpu.dcache.overall_mshr_miss_rate::total     0.255005                       # mshr miss rate for overall accesses
system.cpu.dcache.demand_avg_mshr_miss_latency::.cpu.data 33406.397712                       # average overall mshr miss latency
system.cpu.dcache.demand_avg_mshr_miss_latency::total 33406.397712                       # average overall mshr miss latency
system.cpu.dcache.overall_avg_mshr_miss_latency::.cpu.data 33408.035203                       # average overall mshr miss latency
system.cpu.dcache.overall_avg_mshr_miss_latency::total 33408.035203                       # average overall mshr miss latency
system.cpu.dcache.replacements                  97772                       # number of replacements
system.cpu.dcache.ReadReq_hits::.cpu.data       168214                       # number of ReadReq hits
system.cpu.dcache.ReadReq_hits::total          168214                       # number of ReadReq hits
system.cpu.dcache.ReadReq_misses::.cpu.data          393                       # number of ReadReq misses
system.cpu.dcache.ReadReq_misses::total           393                       # number of ReadReq misses
system.cpu.dcache.ReadReq_miss_latency::.cpu.data     26530000                       # number of ReadReq miss cycles
system.cpu.dcache.ReadReq_miss_latency::total     26530000                       # number of ReadReq miss cycles
system.cpu.dcache.ReadReq_accesses::.cpu.data       168607                       # number of ReadReq accesses(hits+misses)
system.cpu.dcache.ReadReq_accesses::total       168607                       # number of ReadReq accesses(hits+misses)
system.cpu.dcache.ReadReq_miss_rate::.cpu.data     0.002331                       # miss rate for ReadReq accesses
system.cpu.dcache.ReadReq_miss_rate::total     0.002331                       # miss rate for ReadReq accesses
system.cpu.dcache.ReadReq_avg_miss_latency::.cpu.data 67506.361323                       # average ReadReq miss latency
system.cpu.dcache.ReadReq_avg_miss_latency::total 67506.361323                       # average ReadReq miss latency
system.cpu.dcache.ReadReq_mshr_hits::.cpu.data          259                       # number of ReadReq MSHR hits
system.cpu.dcache.ReadReq_mshr_hits::total          259                       # number of ReadReq MSHR hits
system.cpu.dcache.ReadReq_mshr_misses::.cpu.data          134                       # number of ReadReq MSHR misses
system.cpu.dcache.ReadReq_mshr_misses::total          134                       # number of ReadReq MSHR misses
system.cpu.dcache.ReadReq_mshr_miss_latency::.cpu.data     10494500                       # number of ReadReq MSHR miss cycles
system.cpu.dcache.ReadReq_mshr_miss_latency::total     10494500                       # number of ReadReq MSHR miss cycles
system.cpu.dcache.ReadReq_mshr_miss_rate::.cpu.data     0.000795                       # mshr miss rate for ReadReq accesses
system.cpu.dcache.ReadReq_mshr_miss_rate::total     0.000795                       # mshr miss rate for ReadReq accesses
system.cpu.dcache.ReadReq_avg_mshr_miss_latency::.cpu.data 78317.164179                       # average ReadReq mshr miss latency
system.cpu.dcache.ReadReq_avg_mshr_miss_latency::total 78317.164179                       # average ReadReq mshr miss latency
system.cpu.dcache.WriteReq_hits::.cpu.data       101489                       # number of WriteReq hits
system.cpu.dcache.WriteReq_hits::total         101489                       # number of WriteReq hits
system.cpu.dcache.WriteReq_misses::.cpu.data        21411                       # number of WriteReq misses
system.cpu.dcache.WriteReq_misses::total        21411                       # number of WriteReq misses
system.cpu.dcache.WriteReq_miss_latency::.cpu.data   1301169137                       # number of WriteReq miss cycles
system.cpu.dcache.WriteReq_miss_latency::total   1301169137                       # number of WriteReq miss cycles
system.cpu.dcache.WriteReq_accesses::.cpu.data       122900                       # number of WriteReq accesses(hits+misses)
system.cpu.dcache.WriteReq_accesses::total       122900                       # number of WriteReq accesses(hits+misses)
system.cpu.dcache.WriteReq_miss_rate::.cpu.data     0.174215                       # miss rate for WriteReq accesses
system.cpu.dcache.WriteReq_miss_rate::total     0.174215                       # miss rate for WriteReq accesses
system.cpu.dcache.WriteReq_avg_miss_latency::.cpu.data 60771.058661                       # average WriteReq miss latency
system.cpu.dcache.WriteReq_avg_miss_latency::total 60771.058661                       # average WriteReq miss latency
system.cpu.dcache.WriteReq_mshr_hits::.cpu.data        18671                       # number of WriteReq MSHR hits
system.cpu.dcache.WriteReq_mshr_hits::total        18671                       # number of WriteReq MSHR hits
system.cpu.dcache.WriteReq_mshr_misses::.cpu.data         2740                       # number of WriteReq MSHR misses
system.cpu.dcache.WriteReq_mshr_misses::total         2740                       # number of WriteReq MSHR misses
system.cpu.dcache.WriteReq_mshr_miss_latency::.cpu.data    218535986                       # number of WriteReq MSHR miss cycles
system.cpu.dcache.WriteReq_mshr_miss_latency::total    218535986                       # number of WriteReq MSHR miss cycles
system.cpu.dcache.WriteReq_mshr_miss_rate::.cpu.data     0.022295                       # mshr miss rate for WriteReq accesses
system.cpu.dcache.WriteReq_mshr_miss_rate::total     0.022295                       # mshr miss rate for WriteReq accesses
system.cpu.dcache.WriteReq_avg_mshr_miss_latency::.cpu.data 79757.659124                       # average WriteReq mshr miss latency
system.cpu.dcache.WriteReq_avg_mshr_miss_latency::total 79757.659124                       # average WriteReq mshr miss latency
system.cpu.dcache.SoftPFReq_hits::.cpu.data            5                       # number of SoftPFReq hits
system.cpu.dcache.SoftPFReq_hits::total             5                       # number of SoftPFReq hits
system.cpu.dcache.SoftPFReq_misses::.cpu.data            3                       # number of SoftPFReq misses
system.cpu.dcache.SoftPFReq_misses::total            3                       # number of SoftPFReq misses
system.cpu.dcache.SoftPFReq_accesses::.cpu.data            8                       # number of SoftPFReq accesses(hits+misses)
system.cpu.dcache.SoftPFReq_accesses::total            8                       # number of SoftPFReq accesses(hits+misses)
system.cpu.dcache.SoftPFReq_miss_rate::.cpu.data     0.375000                       # miss rate for SoftPFReq accesses
system.cpu.dcache.SoftPFReq_miss_rate::total     0.375000                       # miss rate for SoftPFReq accesses
system.cpu.dcache.SoftPFReq_mshr_misses::.cpu.data            3                       # number of SoftPFReq MSHR misses
system.cpu.dcache.SoftPFReq_mshr_misses::total            3                       # number of SoftPFReq MSHR misses
system.cpu.dcache.SoftPFReq_mshr_miss_latency::.cpu.data       262000                       # number of SoftPFReq MSHR miss cycles
system.cpu.dcache.SoftPFReq_mshr_miss_latency::total       262000                       # number of SoftPFReq MSHR miss cycles
system.cpu.dcache.SoftPFReq_mshr_miss_rate::.cpu.data     0.375000                       # mshr miss rate for SoftPFReq accesses
system.cpu.dcache.SoftPFReq_mshr_miss_rate::total     0.375000                       # mshr miss rate for SoftPFReq accesses
system.cpu.dcache.SoftPFReq_avg_mshr_miss_latency::.cpu.data 87333.333333                       # average SoftPFReq mshr miss latency
system.cpu.dcache.SoftPFReq_avg_mshr_miss_latency::total 87333.333333                       # average SoftPFReq mshr miss latency
system.cpu.dcache.WriteLineReq_misses::.cpu.data        95921                       # number of WriteLineReq misses
system.cpu.dcache.WriteLineReq_misses::total        95921                       # number of WriteLineReq misses
system.cpu.dcache.WriteLineReq_miss_latency::.cpu.data   3167271576                       # number of WriteLineReq miss cycles
system.cpu.dcache.WriteLineReq_miss_latency::total   3167271576                       # number of WriteLineReq miss cycles
system.cpu.dcache.WriteLineReq_accesses::.cpu.data        95921                       # number of WriteLineReq accesses(hits+misses)
system.cpu.dcache.WriteLineReq_accesses::total        95921                       # number of WriteLineReq accesses(hits+misses)
system.cpu.dcache.WriteLineReq_miss_rate::.cpu.data            1                       # miss rate for WriteLineReq accesses
system.cpu.dcache.WriteLineReq_miss_rate::total            1                       # miss rate for WriteLineReq accesses
system.cpu.dcache.WriteLineReq_avg_miss_latency::.cpu.data 33019.584617                       # average WriteLineReq miss latency
system.cpu.dcache.WriteLineReq_avg_miss_latency::total 33019.584617                       # average WriteLineReq miss latency
system.cpu.dcache.WriteLineReq_mshr_misses::.cpu.data        95921                       # number of WriteLineReq MSHR misses
system.cpu.dcache.WriteLineReq_mshr_misses::total        95921                       # number of WriteLineReq MSHR misses
system.cpu.dcache.WriteLineReq_mshr_miss_latency::.cpu.data   3071354576                       # number of WriteLineReq MSHR miss cycles
system.cpu.dcache.WriteLineReq_mshr_miss_latency::total   3071354576                       # number of WriteLineReq MSHR miss cycles
system.cpu.dcache.WriteLineReq_mshr_miss_rate::.cpu.data            1                       # mshr miss rate for WriteLineReq accesses
system.cpu.dcache.WriteLineReq_mshr_miss_rate::total            1                       # mshr miss rate for WriteLineReq accesses
system.cpu.dcache.WriteLineReq_avg_mshr_miss_latency::.cpu.data 32019.626317                       # average WriteLineReq mshr miss latency
system.cpu.dcache.WriteLineReq_avg_mshr_miss_latency::total 32019.626317                       # average WriteLineReq mshr miss latency
system.cpu.dcache.LoadLockedReq_hits::.cpu.data           26                       # number of LoadLockedReq hits
system.cpu.dcache.LoadLockedReq_hits::total           26                       # number of LoadLockedReq hits
system.cpu.dcache.LoadLockedReq_misses::.cpu.data            2                       # number of LoadLockedReq misses
system.cpu.dcache.LoadLockedReq_misses::total            2                       # number of LoadLockedReq misses
system.cpu.dcache.LoadLockedReq_miss_latency::.cpu.data       100000                       # number of LoadLockedReq miss cycles
system.cpu.dcache.LoadLockedReq_miss_latency::total       100000                       # number of LoadLockedReq miss cycles
system.cpu.dcache.LoadLockedReq_accesses::.cpu.data           28                       # number of LoadLockedReq accesses(hits+misses)
system.cpu.dcache.LoadLockedReq_accesses::total           28                       # number of LoadLockedReq accesses(hits+misses)
system.cpu.dcache.LoadLockedReq_miss_rate::.cpu.data     0.071429                       # miss rate for LoadLockedReq accesses
system.cpu.dcache.LoadLockedReq_miss_rate::total     0.071429                       # miss rate for LoadLockedReq accesses
system.cpu.dcache.LoadLockedReq_avg_miss_latency::.cpu.data        50000                       # average LoadLockedReq miss latency
system.cpu.dcache.LoadLockedReq_avg_miss_latency::total        50000                       # average LoadLockedReq miss latency
system.cpu.dcache.LoadLockedReq_mshr_misses::.cpu.data            2                       # number of LoadLockedReq MSHR misses
system.cpu.dcache.LoadLockedReq_mshr_misses::total            2                       # number of LoadLockedReq MSHR misses
system.cpu.dcache.LoadLockedReq_mshr_miss_latency::.cpu.data        98000                       # number of LoadLockedReq MSHR miss cycles
system.cpu.dcache.LoadLockedReq_mshr_miss_latency::total        98000                       # number of LoadLockedReq MSHR miss cycles
system.cpu.dcache.LoadLockedReq_mshr_miss_rate::.cpu.data     0.071429                       # mshr miss rate for LoadLockedReq accesses
system.cpu.dcache.LoadLockedReq_mshr_miss_rate::total     0.071429                       # mshr miss rate for LoadLockedReq accesses
system.cpu.dcache.LoadLockedReq_avg_mshr_miss_latency::.cpu.data        49000                       # average LoadLockedReq mshr miss latency
system.cpu.dcache.LoadLockedReq_avg_mshr_miss_latency::total        49000                       # average LoadLockedReq mshr miss latency
system.cpu.dcache.StoreCondReq_hits::.cpu.data           20                       # number of StoreCondReq hits
system.cpu.dcache.StoreCondReq_hits::total           20                       # number of StoreCondReq hits
system.cpu.dcache.StoreCondReq_accesses::.cpu.data           20                       # number of StoreCondReq accesses(hits+misses)
system.cpu.dcache.StoreCondReq_accesses::total           20                       # number of StoreCondReq accesses(hits+misses)
system.cpu.dcache.power_state.pwrStateResidencyTicks::UNDEFINED    997520500                       # Cumulative time (in ticks) in various power states
system.cpu.dcache.tags.tagsinuse           987.492993                       # Cycle average of tags in use
system.cpu.dcache.tags.total_refs              368550                       # Total number of references to valid blocks.
system.cpu.dcache.tags.sampled_refs             98796                       # Sample count of references to valid blocks.
system.cpu.dcache.tags.avg_refs              3.730414                       # Average number of references to valid blocks.
system.cpu.dcache.tags.warmup_cycle            268500                       # Cycle when the warmup percentage was hit.
system.cpu.dcache.tags.occ_blocks::.cpu.data   987.492993                       # Average occupied blocks per requestor
system.cpu.dcache.tags.occ_percent::.cpu.data     0.964349                       # Average percentage of cache occupancy
system.cpu.dcache.tags.occ_percent::total     0.964349                       # Average percentage of cache occupancy
system.cpu.dcache.tags.occ_task_id_blocks::1024         1024                       # Occupied blocks per task id
system.cpu.dcache.tags.age_task_id_blocks_1024::0         1024                       # Occupied blocks per task id
system.cpu.dcache.tags.occ_task_id_percent::1024            1                       # Percentage of cache occupancy per task id
system.cpu.dcache.tags.tag_accesses            873764                       # Number of tag accesses
system.cpu.dcache.tags.data_accesses           873764                       # Number of data accesses
system.cpu.dcache.tags.power_state.pwrStateResidencyTicks::UNDEFINED    997520500                       # Cumulative time (in ticks) in various power states
system.cpu.power_state.pwrStateResidencyTicks::ON    997520500                       # Cumulative time (in ticks) in various power states

---------- End Simulation Statistics   ----------
