
---------- Begin Simulation Statistics ----------
final_tick                                  782941500                       # Number of ticks from beginning of simulation (restored from checkpoints and never reset)
host_inst_rate                                  78050                       # Simulator instruction rate (inst/s)
host_mem_usage                                 861728                       # Number of bytes of host memory used
host_op_rate                                    80802                       # Simulator op (including micro ops) rate (op/s)
host_seconds                                    12.81                       # Real time elapsed on the host
host_tick_rate                               61107053                       # Simulator tick rate (ticks/s)
sim_freq                                 1000000000000                       # Frequency of simulated ticks
sim_insts                                     1000005                       # Number of instructions simulated
sim_ops                                       1035288                       # Number of ops (including micro ops) simulated
sim_seconds                                  0.000783                       # Number of seconds simulated
sim_ticks                                   782941500                       # Number of ticks simulated
system.cpu.branchPred.BTBCorrect                    0                       # Number of correct BTB predictions (this stat may not work properly.
system.cpu.branchPred.BTBHitPct             97.613613                       # BTB Hit Percentage
system.cpu.branchPred.BTBHits                   79109                       # Number of BTB hits
system.cpu.branchPred.BTBLookups                81043                       # Number of BTB lookups
system.cpu.branchPred.RASInCorrect                  2                       # Number of incorrect RAS predictions.
system.cpu.branchPred.condIncorrect              6984                       # Number of conditional branches incorrect
system.cpu.branchPred.condPredicted             52441                       # Number of conditional branches predicted
system.cpu.branchPred.indirectHits                 97                       # Number of indirect target hits.
system.cpu.branchPred.indirectLookups             505                       # Number of indirect predictor lookups.
system.cpu.branchPred.indirectMisses              408                       # Number of indirect misses.
system.cpu.branchPred.lookups                  162565                       # Number of BP lookups
system.cpu.branchPred.usedRAS                   54319                       # Number of times the RAS was used to get a target.
system.cpu.branchPredindirectMispredicted           97                       # Number of mispredicted indirect branches.
system.cpu.cc_regfile_reads                     71820                       # number of cc regfile reads
system.cpu.cc_regfile_writes                    72918                       # number of cc regfile writes
system.cpu.commit.amos                              0                       # Number of atomic instructions committed
system.cpu.commit.branchMispredicts              6674                       # The number of times a branch was mispredicted
system.cpu.commit.branches                      89552                       # Number of branches committed
system.cpu.commit.bw_lim_events                 66435                       # number cycles where commit BW limit reached
system.cpu.commit.commitNonSpecStalls             169                       # The number of times commit has been forced to stall to communicate backwards
system.cpu.commit.commitSquashedInsts          571195                       # The number of squashed insts skipped by commit
system.cpu.commit.committedInsts              1000413                       # Number of instructions committed
system.cpu.commit.committedOps                1035696                       # Number of ops (including micro ops) committed
system.cpu.commit.committed_per_cycle::samples      1441134                       # Number of insts commited each cycle
system.cpu.commit.committed_per_cycle::mean     0.718667                       # Number of insts commited each cycle
system.cpu.commit.committed_per_cycle::stdev     1.830603                       # Number of insts commited each cycle
system.cpu.commit.committed_per_cycle::underflows            0      0.00%      0.00% # Number of insts commited each cycle
system.cpu.commit.committed_per_cycle::0      1074395     74.55%     74.55% # Number of insts commited each cycle
system.cpu.commit.committed_per_cycle::1       201185     13.96%     88.51% # Number of insts commited each cycle
system.cpu.commit.committed_per_cycle::2        54031      3.75%     92.26% # Number of insts commited each cycle
system.cpu.commit.committed_per_cycle::3        11144      0.77%     93.03% # Number of insts commited each cycle
system.cpu.commit.committed_per_cycle::4        19499      1.35%     94.39% # Number of insts commited each cycle
system.cpu.commit.committed_per_cycle::5         6470      0.45%     94.84% # Number of insts commited each cycle
system.cpu.commit.committed_per_cycle::6         4634      0.32%     95.16% # Number of insts commited each cycle
system.cpu.commit.committed_per_cycle::7         3341      0.23%     95.39% # Number of insts commited each cycle
system.cpu.commit.committed_per_cycle::8        66435      4.61%    100.00% # Number of insts commited each cycle
system.cpu.commit.committed_per_cycle::overflows            0      0.00%    100.00% # Number of insts commited each cycle
system.cpu.commit.committed_per_cycle::min_value            0                       # Number of insts commited each cycle
system.cpu.commit.committed_per_cycle::max_value            8                       # Number of insts commited each cycle
system.cpu.commit.committed_per_cycle::total      1441134                       # Number of insts commited each cycle
system.cpu.commit.fp_insts                          0                       # Number of committed floating point instructions.
system.cpu.commit.function_calls                30618                       # Number of function calls committed.
system.cpu.commit.int_insts                   1016144                       # Number of committed integer instructions.
system.cpu.commit.loads                        160773                       # Number of loads committed
system.cpu.commit.membars                         142                       # Number of memory barriers committed
system.cpu.commit.op_class_0::No_OpClass           35      0.00%      0.00% # Class of committed instruction
system.cpu.commit.op_class_0::IntAlu           521896     50.39%     50.39% # Class of committed instruction
system.cpu.commit.op_class_0::IntMult          158304     15.28%     65.68% # Class of committed instruction
system.cpu.commit.op_class_0::IntDiv            60283      5.82%     71.50% # Class of committed instruction
system.cpu.commit.op_class_0::FloatAdd              0      0.00%     71.50% # Class of committed instruction
system.cpu.commit.op_class_0::FloatCmp              0      0.00%     71.50% # Class of committed instruction
system.cpu.commit.op_class_0::FloatCvt              0      0.00%     71.50% # Class of committed instruction
system.cpu.commit.op_class_0::FloatMult             0      0.00%     71.50% # Class of committed instruction
system.cpu.commit.op_class_0::FloatMultAcc            0      0.00%     71.50% # Class of committed instruction
system.cpu.commit.op_class_0::FloatDiv              0      0.00%     71.50% # Class of committed instruction
system.cpu.commit.op_class_0::FloatMisc             0      0.00%     71.50% # Class of committed instruction
system.cpu.commit.op_class_0::FloatSqrt             0      0.00%     71.50% # Class of committed instruction
system.cpu.commit.op_class_0::SimdAdd              83      0.01%     71.51% # Class of committed instruction
system.cpu.commit.op_class_0::SimdAddAcc            0      0.00%     71.51% # Class of committed instruction
system.cpu.commit.op_class_0::SimdAlu             138      0.01%     71.52% # Class of committed instruction
system.cpu.commit.op_class_0::SimdCmp             140      0.01%     71.53% # Class of committed instruction
system.cpu.commit.op_class_0::SimdCvt               0      0.00%     71.53% # Class of committed instruction
system.cpu.commit.op_class_0::SimdMisc            103      0.01%     71.54% # Class of committed instruction
system.cpu.commit.op_class_0::SimdMult              0      0.00%     71.54% # Class of committed instruction
system.cpu.commit.op_class_0::SimdMultAcc            0      0.00%     71.54% # Class of committed instruction
system.cpu.commit.op_class_0::SimdShift             0      0.00%     71.54% # Class of committed instruction
system.cpu.commit.op_class_0::SimdShiftAcc            0      0.00%     71.54% # Class of committed instruction
system.cpu.commit.op_class_0::SimdDiv               0      0.00%     71.54% # Class of committed instruction
system.cpu.commit.op_class_0::SimdSqrt              0      0.00%     71.54% # Class of committed instruction
system.cpu.commit.op_class_0::SimdFloatAdd            0      0.00%     71.54% # Class of committed instruction
system.cpu.commit.op_class_0::SimdFloatAlu            0      0.00%     71.54% # Class of committed instruction
system.cpu.commit.op_class_0::SimdFloatCmp            0      0.00%     71.54% # Class of committed instruction
system.cpu.commit.op_class_0::SimdFloatCvt            0      0.00%     71.54% # Class of committed instruction
system.cpu.commit.op_class_0::SimdFloatDiv            0      0.00%     71.54% # Class of committed instruction
system.cpu.commit.op_class_0::SimdFloatMisc            0      0.00%     71.54% # Class of committed instruction
system.cpu.commit.op_class_0::SimdFloatMult            0      0.00%     71.54% # Class of committed instruction
system.cpu.commit.op_class_0::SimdFloatMultAcc            0      0.00%     71.54% # Class of committed instruction
system.cpu.commit.op_class_0::SimdFloatSqrt            0      0.00%     71.54% # Class of committed instruction
system.cpu.commit.op_class_0::SimdReduceAdd            0      0.00%     71.54% # Class of committed instruction
system.cpu.commit.op_class_0::SimdReduceAlu            0      0.00%     71.54% # Class of committed instruction
system.cpu.commit.op_class_0::SimdReduceCmp            0      0.00%     71.54% # Class of committed instruction
system.cpu.commit.op_class_0::SimdFloatReduceAdd            0      0.00%     71.54% # Class of committed instruction
system.cpu.commit.op_class_0::SimdFloatReduceCmp            0      0.00%     71.54% # Class of committed instruction
system.cpu.commit.op_class_0::SimdAes               0      0.00%     71.54% # Class of committed instruction
system.cpu.commit.op_class_0::SimdAesMix            0      0.00%     71.54% # Class of committed instruction
system.cpu.commit.op_class_0::SimdSha1Hash            0      0.00%     71.54% # Class of committed instruction
system.cpu.commit.op_class_0::SimdSha1Hash2            0      0.00%     71.54% # Class of committed instruction
system.cpu.commit.op_class_0::SimdSha256Hash            0      0.00%     71.54% # Class of committed instruction
system.cpu.commit.op_class_0::SimdSha256Hash2            0      0.00%     71.54% # Class of committed instruction
system.cpu.commit.op_class_0::SimdShaSigma2            0      0.00%     71.54% # Class of committed instruction
system.cpu.commit.op_class_0::SimdShaSigma3            0      0.00%     71.54% # Class of committed instruction
system.cpu.commit.op_class_0::SimdPredAlu            0      0.00%     71.54% # Class of committed instruction
system.cpu.commit.op_class_0::MemRead          160773     15.52%     87.07% # Class of committed instruction
system.cpu.commit.op_class_0::MemWrite         133941     12.93%    100.00% # Class of committed instruction
system.cpu.commit.op_class_0::FloatMemRead            0      0.00%    100.00% # Class of committed instruction
system.cpu.commit.op_class_0::FloatMemWrite            0      0.00%    100.00% # Class of committed instruction
system.cpu.commit.op_class_0::IprAccess             0      0.00%    100.00% # Class of committed instruction
system.cpu.commit.op_class_0::InstPrefetch            0      0.00%    100.00% # Class of committed instruction
system.cpu.commit.op_class_0::total           1035696                       # Class of committed instruction
system.cpu.commit.refs                         294714                       # Number of memory references committed
system.cpu.commit.swp_count                         0                       # Number of s/w prefetches committed
system.cpu.commit.vec_insts                      1073                       # Number of committed Vector instructions.
system.cpu.committedInsts                     1000005                       # Number of Instructions Simulated
system.cpu.committedOps                       1035288                       # Number of Ops (including micro ops) Simulated
system.cpu.cpi                               1.565876                       # CPI: Cycles Per Instruction
system.cpu.cpi_total                         1.565876                       # CPI: Total CPI of All Threads
system.cpu.decode.BlockedCycles               1060700                       # Number of cycles decode is blocked
system.cpu.decode.BranchMispred                   329                       # Number of times decode detected a branch misprediction
system.cpu.decode.BranchResolved                76955                       # Number of times decode resolved a branch
system.cpu.decode.DecodedInsts                1869591                       # Number of instructions handled by decode
system.cpu.decode.IdleCycles                   155956                       # Number of cycles decode is idle
system.cpu.decode.RunCycles                    230407                       # Number of cycles decode is running
system.cpu.decode.SquashCycles                  10507                       # Number of cycles decode is squashing
system.cpu.decode.SquashedInsts                  1055                       # Number of squashed instructions handled by decode
system.cpu.decode.UnblockCycles                 59168                       # Number of cycles decode is unblocking
system.cpu.dtb.accesses                             0                       # DTB accesses
system.cpu.dtb.align_faults                         0                       # Number of TLB faults due to alignment restrictions
system.cpu.dtb.domain_faults                        0                       # Number of TLB faults due to domain restrictions
system.cpu.dtb.flush_entries                        0                       # Number of entries that have been flushed from TLB
system.cpu.dtb.flush_tlb                            0                       # Number of times complete TLB was flushed
system.cpu.dtb.flush_tlb_asid                       0                       # Number of times TLB was flushed by ASID
system.cpu.dtb.flush_tlb_mva                        0                       # Number of times TLB was flushed by MVA
system.cpu.dtb.flush_tlb_mva_asid                   0                       # Number of times TLB was flushed by MVA & ASID
system.cpu.dtb.hits                                 0                       # DTB hits
system.cpu.dtb.inst_accesses                        0                       # ITB inst accesses
system.cpu.dtb.inst_hits                            0                       # ITB inst hits
system.cpu.dtb.inst_misses                          0                       # ITB inst misses
system.cpu.dtb.misses                               0                       # DTB misses
system.cpu.dtb.perms_faults                         0                       # Number of TLB faults due to permissions restrictions
system.cpu.dtb.prefetch_faults                      0                       # Number of TLB faults due to prefetch
system.cpu.dtb.read_accesses                        0                       # DTB read accesses
system.cpu.dtb.read_hits                            0                       # DTB read hits
system.cpu.dtb.read_misses                          0                       # DTB read misses
system.cpu.dtb.stage2_mmu.stage2_tlb.accesses            0                       # DTB accesses
system.cpu.dtb.stage2_mmu.stage2_tlb.align_faults            0                       # Number of TLB faults due to alignment restrictions
system.cpu.dtb.stage2_mmu.stage2_tlb.domain_faults            0                       # Number of TLB faults due to domain restrictions
system.cpu.dtb.stage2_mmu.stage2_tlb.flush_entries            0                       # Number of entries that have been flushed from TLB
system.cpu.dtb.stage2_mmu.stage2_tlb.flush_tlb            0                       # Number of times complete TLB was flushed
system.cpu.dtb.stage2_mmu.stage2_tlb.flush_tlb_asid            0                       # Number of times TLB was flushed by ASID
system.cpu.dtb.stage2_mmu.stage2_tlb.flush_tlb_mva            0                       # Number of times TLB was flushed by MVA
system.cpu.dtb.stage2_mmu.stage2_tlb.flush_tlb_mva_asid            0                       # Number of times TLB was flushed by MVA & ASID
system.cpu.dtb.stage2_mmu.stage2_tlb.hits            0                       # DTB hits
system.cpu.dtb.stage2_mmu.stage2_tlb.inst_accesses            0                       # ITB inst accesses
system.cpu.dtb.stage2_mmu.stage2_tlb.inst_hits            0                       # ITB inst hits
system.cpu.dtb.stage2_mmu.stage2_tlb.inst_misses            0                       # ITB inst misses
system.cpu.dtb.stage2_mmu.stage2_tlb.misses            0                       # DTB misses
system.cpu.dtb.stage2_mmu.stage2_tlb.perms_faults            0                       # Number of TLB faults due to permissions restrictions
system.cpu.dtb.stage2_mmu.stage2_tlb.prefetch_faults            0                       # Number of TLB faults due to prefetch
system.cpu.dtb.stage2_mmu.stage2_tlb.read_accesses            0                       # DTB read accesses
system.cpu.dtb.stage2_mmu.stage2_tlb.read_hits            0                       # DTB read hits
system.cpu.dtb.stage2_mmu.stage2_tlb.read_misses            0                       # DTB read misses
system.cpu.dtb.stage2_mmu.stage2_tlb.walker.walkRequestOrigin_Requested::Data            0                       # Table walker requests started/completed, data/inst
system.cpu.dtb.stage2_mmu.stage2_tlb.walker.walkRequestOrigin_Requested::Inst            0                       # Table walker requests started/completed, data/inst
system.cpu.dtb.stage2_mmu.stage2_tlb.walker.walkRequestOrigin_Requested::total            0                       # Table walker requests started/completed, data/inst
system.cpu.dtb.stage2_mmu.stage2_tlb.walker.walkRequestOrigin_Completed::Data            0                       # Table walker requests started/completed, data/inst
system.cpu.dtb.stage2_mmu.stage2_tlb.walker.walkRequestOrigin_Completed::Inst            0                       # Table walker requests started/completed, data/inst
system.cpu.dtb.stage2_mmu.stage2_tlb.walker.walkRequestOrigin_Completed::total            0                       # Table walker requests started/completed, data/inst
system.cpu.dtb.stage2_mmu.stage2_tlb.walker.walkRequestOrigin::total            0                       # Table walker requests started/completed, data/inst
system.cpu.dtb.stage2_mmu.stage2_tlb.walker.walks            0                       # Table walker walks requested
system.cpu.dtb.stage2_mmu.stage2_tlb.write_accesses            0                       # DTB write accesses
system.cpu.dtb.stage2_mmu.stage2_tlb.write_hits            0                       # DTB write hits
system.cpu.dtb.stage2_mmu.stage2_tlb.write_misses            0                       # DTB write misses
system.cpu.dtb.walker.walkRequestOrigin_Requested::Data            0                       # Table walker requests started/completed, data/inst
system.cpu.dtb.walker.walkRequestOrigin_Requested::Inst            0                       # Table walker requests started/completed, data/inst
system.cpu.dtb.walker.walkRequestOrigin_Requested::total            0                       # Table walker requests started/completed, data/inst
system.cpu.dtb.walker.walkRequestOrigin_Completed::Data            0                       # Table walker requests started/completed, data/inst
system.cpu.dtb.walker.walkRequestOrigin_Completed::Inst            0                       # Table walker requests started/completed, data/inst
system.cpu.dtb.walker.walkRequestOrigin_Completed::total            0                       # Table walker requests started/completed, data/inst
system.cpu.dtb.walker.walkRequestOrigin::total            0                       # Table walker requests started/completed, data/inst
system.cpu.dtb.walker.walks                         0                       # Table walker walks requested
system.cpu.dtb.write_accesses                       0                       # DTB write accesses
system.cpu.dtb.write_hits                           0                       # DTB write hits
system.cpu.dtb.write_misses                         0                       # DTB write misses
system.cpu.fetch.Branches                      162565                       # Number of branches that fetch encountered
system.cpu.fetch.CacheLines                    240262                       # Number of cache lines fetched
system.cpu.fetch.Cycles                       1239428                       # Number of cycles fetch has run and was not squashing or blocked
system.cpu.fetch.IcacheSquashes                  5241                       # Number of outstanding Icache misses that were squashed
system.cpu.fetch.IcacheWaitRetryStallCycles           61                       # Number of stall cycles due to full MSHR
system.cpu.fetch.Insts                        1919405                       # Number of instructions fetch has processed
system.cpu.fetch.MiscStallCycles                    5                       # Number of cycles fetch has spent waiting on interrupts, or bad addresses, or out of MSHRs
system.cpu.fetch.SquashCycles                   21634                       # Number of cycles fetch has spent squashing
system.cpu.fetch.branchRate                  0.103817                       # Number of branch fetches per cycle
system.cpu.fetch.icacheStallCycles             266427                       # Number of cycles fetch is stalled on an Icache miss
system.cpu.fetch.predictedBranches             133525                       # Number of branches that fetch has predicted taken
system.cpu.fetch.rate                        1.225764                       # Number of inst fetches per cycle
system.cpu.fetch.rateDist::samples            1516738                       # Number of instructions fetched each cycle (Total)
system.cpu.fetch.rateDist::mean              1.312699                       # Number of instructions fetched each cycle (Total)
system.cpu.fetch.rateDist::stdev             2.626245                       # Number of instructions fetched each cycle (Total)
system.cpu.fetch.rateDist::underflows               0      0.00%      0.00% # Number of instructions fetched each cycle (Total)
system.cpu.fetch.rateDist::0                  1135727     74.88%     74.88% # Number of instructions fetched each cycle (Total)
system.cpu.fetch.rateDist::1                    37820      2.49%     77.37% # Number of instructions fetched each cycle (Total)
system.cpu.fetch.rateDist::2                    58814      3.88%     81.25% # Number of instructions fetched each cycle (Total)
system.cpu.fetch.rateDist::3                    30166      1.99%     83.24% # Number of instructions fetched each cycle (Total)
system.cpu.fetch.rateDist::4                    24115      1.59%     84.83% # Number of instructions fetched each cycle (Total)
system.cpu.fetch.rateDist::5                    39035      2.57%     87.40% # Number of instructions fetched each cycle (Total)
system.cpu.fetch.rateDist::6                    33170      2.19%     89.59% # Number of instructions fetched each cycle (Total)
system.cpu.fetch.rateDist::7                     8709      0.57%     90.16% # Number of instructions fetched each cycle (Total)
system.cpu.fetch.rateDist::8                   149182      9.84%    100.00% # Number of instructions fetched each cycle (Total)
system.cpu.fetch.rateDist::overflows                0      0.00%    100.00% # Number of instructions fetched each cycle (Total)
system.cpu.fetch.rateDist::min_value                0                       # Number of instructions fetched each cycle (Total)
system.cpu.fetch.rateDist::max_value                8                       # Number of instructions fetched each cycle (Total)
system.cpu.fetch.rateDist::total              1516738                       # Number of instructions fetched each cycle (Total)
system.cpu.idleCycles                           49146                       # Total number of cycles that the CPU has spent unscheduled due to idling
system.cpu.iew.branchMispredicts                 9246                       # Number of branch mispredicts detected at execute
system.cpu.iew.exec_branches                   138735                       # Number of branches executed
system.cpu.iew.exec_nop                           513                       # number of nop insts executed
system.cpu.iew.exec_rate                     0.982388                       # Inst execution rate
system.cpu.iew.exec_refs                       477586                       # number of memory reference insts executed
system.cpu.iew.exec_stores                     198660                       # Number of stores executed
system.cpu.iew.exec_swp                             0                       # number of swp insts executed
system.cpu.iew.iewBlockCycles                  258593                       # Number of cycles IEW is blocking
system.cpu.iew.iewDispLoadInsts                289260                       # Number of dispatched load instructions
system.cpu.iew.iewDispNonSpecInsts                287                       # Number of dispatched non-speculative instructions
system.cpu.iew.iewDispSquashedInsts              6786                       # Number of squashed instructions skipped by dispatch
system.cpu.iew.iewDispStoreInsts               235973                       # Number of dispatched store instructions
system.cpu.iew.iewDispatchedInsts             1760061                       # Number of instructions dispatched to IQ
system.cpu.iew.iewExecLoadInsts                278926                       # Number of load instructions executed
system.cpu.iew.iewExecSquashedInsts             13898                       # Number of squashed instructions skipped in execute
system.cpu.iew.iewExecutedInsts               1538306                       # Number of executed instructions
system.cpu.iew.iewIQFullEvents                  14017                       # Number of times the IQ has become full, causing a stall
system.cpu.iew.iewIdleCycles                        0                       # Number of cycles IEW is idle
system.cpu.iew.iewLSQFullEvents                 26646                       # Number of times the LSQ has become full, causing a stall
system.cpu.iew.iewSquashCycles                  10507                       # Number of cycles IEW is squashing
system.cpu.iew.iewUnblockCycles                 47212                       # Number of cycles IEW is unblocking
system.cpu.iew.lsq.thread0.blockedLoads             0                       # Number of blocked loads due to partial load-store forwarding
system.cpu.iew.lsq.thread0.cacheBlocked          2997                       # Number of times an access to memory failed due to the cache being blocked
system.cpu.iew.lsq.thread0.forwLoads              112                       # Number of loads that had data forwarded from stores
system.cpu.iew.lsq.thread0.ignoredResponses           13                       # Number of memory responses ignored because the instruction is squashed
system.cpu.iew.lsq.thread0.invAddrLoads             0                       # Number of loads ignored due to an invalid address
system.cpu.iew.lsq.thread0.invAddrSwpfs             0                       # Number of software prefetches ignored due to an invalid address
system.cpu.iew.lsq.thread0.memOrderViolation           28                       # Number of memory ordering violations
system.cpu.iew.lsq.thread0.rescheduledLoads          135                       # Number of loads that were rescheduled
system.cpu.iew.lsq.thread0.squashedLoads       128477                       # Number of loads squashed
system.cpu.iew.lsq.thread0.squashedStores       102016                       # Number of stores squashed
system.cpu.iew.memOrderViolationEvents             28                       # Number of memory order violations
system.cpu.iew.predictedNotTakenIncorrect         3104                       # Number of branches that were predicted not taken incorrectly
system.cpu.iew.predictedTakenIncorrect           6142                       # Number of branches that were predicted taken incorrectly
system.cpu.iew.wb_consumers                   1601961                       # num instructions consuming a value
system.cpu.iew.wb_count                       1470041                       # cumulative count of insts written-back
system.cpu.iew.wb_fanout                     0.648108                       # average fanout of values written-back
system.cpu.iew.wb_producers                   1038244                       # num instructions producing a value
system.cpu.iew.wb_rate                       0.938793                       # insts written-back per cycle
system.cpu.iew.wb_sent                        1533210                       # cumulative count of insts sent to commit
system.cpu.int_regfile_reads                  2267535                       # number of integer regfile reads
system.cpu.int_regfile_writes                 1269339                       # number of integer regfile writes
system.cpu.ipc                               0.638620                       # IPC: Instructions Per Cycle
system.cpu.ipc_total                         0.638620                       # IPC: Total IPC of All Threads
system.cpu.iq.FU_type_0::No_OpClass                53      0.00%      0.00% # Type of FU issued
system.cpu.iq.FU_type_0::IntAlu                800178     51.55%     51.55% # Type of FU issued
system.cpu.iq.FU_type_0::IntMult               198221     12.77%     64.32% # Type of FU issued
system.cpu.iq.FU_type_0::IntDiv                 68238      4.40%     68.72% # Type of FU issued
system.cpu.iq.FU_type_0::FloatAdd                   0      0.00%     68.72% # Type of FU issued
system.cpu.iq.FU_type_0::FloatCmp                   0      0.00%     68.72% # Type of FU issued
system.cpu.iq.FU_type_0::FloatCvt                   0      0.00%     68.72% # Type of FU issued
system.cpu.iq.FU_type_0::FloatMult                  0      0.00%     68.72% # Type of FU issued
system.cpu.iq.FU_type_0::FloatMultAcc               0      0.00%     68.72% # Type of FU issued
system.cpu.iq.FU_type_0::FloatDiv                   0      0.00%     68.72% # Type of FU issued
system.cpu.iq.FU_type_0::FloatMisc                  0      0.00%     68.72% # Type of FU issued
system.cpu.iq.FU_type_0::FloatSqrt                  0      0.00%     68.72% # Type of FU issued
system.cpu.iq.FU_type_0::SimdAdd                  126      0.01%     68.73% # Type of FU issued
system.cpu.iq.FU_type_0::SimdAddAcc                 0      0.00%     68.73% # Type of FU issued
system.cpu.iq.FU_type_0::SimdAlu                  227      0.01%     68.74% # Type of FU issued
system.cpu.iq.FU_type_0::SimdCmp                  208      0.01%     68.76% # Type of FU issued
system.cpu.iq.FU_type_0::SimdCvt                    0      0.00%     68.76% # Type of FU issued
system.cpu.iq.FU_type_0::SimdMisc                 140      0.01%     68.77% # Type of FU issued
system.cpu.iq.FU_type_0::SimdMult                   0      0.00%     68.77% # Type of FU issued
system.cpu.iq.FU_type_0::SimdMultAcc                0      0.00%     68.77% # Type of FU issued
system.cpu.iq.FU_type_0::SimdShift                  0      0.00%     68.77% # Type of FU issued
system.cpu.iq.FU_type_0::SimdShiftAcc               0      0.00%     68.77% # Type of FU issued
system.cpu.iq.FU_type_0::SimdDiv                    0      0.00%     68.77% # Type of FU issued
system.cpu.iq.FU_type_0::SimdSqrt                   0      0.00%     68.77% # Type of FU issued
system.cpu.iq.FU_type_0::SimdFloatAdd               0      0.00%     68.77% # Type of FU issued
system.cpu.iq.FU_type_0::SimdFloatAlu               0      0.00%     68.77% # Type of FU issued
system.cpu.iq.FU_type_0::SimdFloatCmp               0      0.00%     68.77% # Type of FU issued
system.cpu.iq.FU_type_0::SimdFloatCvt               0      0.00%     68.77% # Type of FU issued
system.cpu.iq.FU_type_0::SimdFloatDiv               0      0.00%     68.77% # Type of FU issued
system.cpu.iq.FU_type_0::SimdFloatMisc              0      0.00%     68.77% # Type of FU issued
system.cpu.iq.FU_type_0::SimdFloatMult              0      0.00%     68.77% # Type of FU issued
system.cpu.iq.FU_type_0::SimdFloatMultAcc            0      0.00%     68.77% # Type of FU issued
system.cpu.iq.FU_type_0::SimdFloatSqrt              0      0.00%     68.77% # Type of FU issued
system.cpu.iq.FU_type_0::SimdReduceAdd              0      0.00%     68.77% # Type of FU issued
system.cpu.iq.FU_type_0::SimdReduceAlu              0      0.00%     68.77% # Type of FU issued
system.cpu.iq.FU_type_0::SimdReduceCmp              0      0.00%     68.77% # Type of FU issued
system.cpu.iq.FU_type_0::SimdFloatReduceAdd            0      0.00%     68.77% # Type of FU issued
system.cpu.iq.FU_type_0::SimdFloatReduceCmp            0      0.00%     68.77% # Type of FU issued
system.cpu.iq.FU_type_0::SimdAes                    0      0.00%     68.77% # Type of FU issued
system.cpu.iq.FU_type_0::SimdAesMix                 0      0.00%     68.77% # Type of FU issued
system.cpu.iq.FU_type_0::SimdSha1Hash               0      0.00%     68.77% # Type of FU issued
system.cpu.iq.FU_type_0::SimdSha1Hash2              0      0.00%     68.77% # Type of FU issued
system.cpu.iq.FU_type_0::SimdSha256Hash             0      0.00%     68.77% # Type of FU issued
system.cpu.iq.FU_type_0::SimdSha256Hash2            0      0.00%     68.77% # Type of FU issued
system.cpu.iq.FU_type_0::SimdShaSigma2              0      0.00%     68.77% # Type of FU issued
system.cpu.iq.FU_type_0::SimdShaSigma3              0      0.00%     68.77% # Type of FU issued
system.cpu.iq.FU_type_0::SimdPredAlu                0      0.00%     68.77% # Type of FU issued
system.cpu.iq.FU_type_0::MemRead               284987     18.36%     87.13% # Type of FU issued
system.cpu.iq.FU_type_0::MemWrite              199829     12.87%    100.00% # Type of FU issued
system.cpu.iq.FU_type_0::FloatMemRead               0      0.00%    100.00% # Type of FU issued
system.cpu.iq.FU_type_0::FloatMemWrite              0      0.00%    100.00% # Type of FU issued
system.cpu.iq.FU_type_0::IprAccess                  0      0.00%    100.00% # Type of FU issued
system.cpu.iq.FU_type_0::InstPrefetch               0      0.00%    100.00% # Type of FU issued
system.cpu.iq.FU_type_0::total                1552207                       # Type of FU issued
system.cpu.iq.fp_alu_accesses                       0                       # Number of floating point alu accesses
system.cpu.iq.fp_inst_queue_reads                   0                       # Number of floating instruction queue reads
system.cpu.iq.fp_inst_queue_wakeup_accesses            0                       # Number of floating instruction queue wakeup accesses
system.cpu.iq.fp_inst_queue_writes                  0                       # Number of floating instruction queue writes
system.cpu.iq.fu_busy_cnt                     1174382                       # FU busy when requested
system.cpu.iq.fu_busy_rate                   0.756589                       # FU busy rate (busy events/executed inst)
system.cpu.iq.fu_full::No_OpClass                   0      0.00%      0.00% # attempts to use FU when none available
system.cpu.iq.fu_full::IntAlu                    6780      0.58%      0.58% # attempts to use FU when none available
system.cpu.iq.fu_full::IntMult                 595924     50.74%     51.32% # attempts to use FU when none available
system.cpu.iq.fu_full::IntDiv                  551378     46.95%     98.27% # attempts to use FU when none available
system.cpu.iq.fu_full::FloatAdd                     0      0.00%     98.27% # attempts to use FU when none available
system.cpu.iq.fu_full::FloatCmp                     0      0.00%     98.27% # attempts to use FU when none available
system.cpu.iq.fu_full::FloatCvt                     0      0.00%     98.27% # attempts to use FU when none available
system.cpu.iq.fu_full::FloatMult                    0      0.00%     98.27% # attempts to use FU when none available
system.cpu.iq.fu_full::FloatMultAcc                 0      0.00%     98.27% # attempts to use FU when none available
system.cpu.iq.fu_full::FloatDiv                     0      0.00%     98.27% # attempts to use FU when none available
system.cpu.iq.fu_full::FloatMisc                    0      0.00%     98.27% # attempts to use FU when none available
system.cpu.iq.fu_full::FloatSqrt                    0      0.00%     98.27% # attempts to use FU when none available
system.cpu.iq.fu_full::SimdAdd                      0      0.00%     98.27% # attempts to use FU when none available
system.cpu.iq.fu_full::SimdAddAcc                   0      0.00%     98.27% # attempts to use FU when none available
system.cpu.iq.fu_full::SimdAlu                      3      0.00%     98.27% # attempts to use FU when none available
system.cpu.iq.fu_full::SimdCmp                     18      0.00%     98.27% # attempts to use FU when none available
system.cpu.iq.fu_full::SimdCvt                      0      0.00%     98.27% # attempts to use FU when none available
system.cpu.iq.fu_full::SimdMisc                     0      0.00%     98.27% # attempts to use FU when none available
system.cpu.iq.fu_full::SimdMult                     0      0.00%     98.27% # attempts to use FU when none available
system.cpu.iq.fu_full::SimdMultAcc                  0      0.00%     98.27% # attempts to use FU when none available
system.cpu.iq.fu_full::SimdShift                    0      0.00%     98.27% # attempts to use FU when none available
system.cpu.iq.fu_full::SimdShiftAcc                 0      0.00%     98.27% # attempts to use FU when none available
system.cpu.iq.fu_full::SimdDiv                      0      0.00%     98.27% # attempts to use FU when none available
system.cpu.iq.fu_full::SimdSqrt                     0      0.00%     98.27% # attempts to use FU when none available
system.cpu.iq.fu_full::SimdFloatAdd                 0      0.00%     98.27% # attempts to use FU when none available
system.cpu.iq.fu_full::SimdFloatAlu                 0      0.00%     98.27% # attempts to use FU when none available
system.cpu.iq.fu_full::SimdFloatCmp                 0      0.00%     98.27% # attempts to use FU when none available
system.cpu.iq.fu_full::SimdFloatCvt                 0      0.00%     98.27% # attempts to use FU when none available
system.cpu.iq.fu_full::SimdFloatDiv                 0      0.00%     98.27% # attempts to use FU when none available
system.cpu.iq.fu_full::SimdFloatMisc                0      0.00%     98.27% # attempts to use FU when none available
system.cpu.iq.fu_full::SimdFloatMult                0      0.00%     98.27% # attempts to use FU when none available
system.cpu.iq.fu_full::SimdFloatMultAcc             0      0.00%     98.27% # attempts to use FU when none available
system.cpu.iq.fu_full::SimdFloatSqrt                0      0.00%     98.27% # attempts to use FU when none available
system.cpu.iq.fu_full::SimdReduceAdd                0      0.00%     98.27% # attempts to use FU when none available
system.cpu.iq.fu_full::SimdReduceAlu                0      0.00%     98.27% # attempts to use FU when none available
system.cpu.iq.fu_full::SimdReduceCmp                0      0.00%     98.27% # attempts to use FU when none available
system.cpu.iq.fu_full::SimdFloatReduceAdd            0      0.00%     98.27% # attempts to use FU when none available
system.cpu.iq.fu_full::SimdFloatReduceCmp            0      0.00%     98.27% # attempts to use FU when none available
system.cpu.iq.fu_full::SimdAes                      0      0.00%     98.27% # attempts to use FU when none available
system.cpu.iq.fu_full::SimdAesMix                   0      0.00%     98.27% # attempts to use FU when none available
system.cpu.iq.fu_full::SimdSha1Hash                 0      0.00%     98.27% # attempts to use FU when none available
system.cpu.iq.fu_full::SimdSha1Hash2                0      0.00%     98.27% # attempts to use FU when none available
system.cpu.iq.fu_full::SimdSha256Hash               0      0.00%     98.27% # attempts to use FU when none available
system.cpu.iq.fu_full::SimdSha256Hash2              0      0.00%     98.27% # attempts to use FU when none available
system.cpu.iq.fu_full::SimdShaSigma2                0      0.00%     98.27% # attempts to use FU when none available
system.cpu.iq.fu_full::SimdShaSigma3                0      0.00%     98.27% # attempts to use FU when none available
system.cpu.iq.fu_full::SimdPredAlu                  0      0.00%     98.27% # attempts to use FU when none available
system.cpu.iq.fu_full::MemRead                  12196      1.04%     99.31% # attempts to use FU when none available
system.cpu.iq.fu_full::MemWrite                  8083      0.69%    100.00% # attempts to use FU when none available
system.cpu.iq.fu_full::FloatMemRead                 0      0.00%    100.00% # attempts to use FU when none available
system.cpu.iq.fu_full::FloatMemWrite                0      0.00%    100.00% # attempts to use FU when none available
system.cpu.iq.fu_full::IprAccess                    0      0.00%    100.00% # attempts to use FU when none available
system.cpu.iq.fu_full::InstPrefetch                 0      0.00%    100.00% # attempts to use FU when none available
system.cpu.iq.int_alu_accesses                2724999                       # Number of integer alu accesses
system.cpu.iq.int_inst_queue_reads            5819820                       # Number of integer instruction queue reads
system.cpu.iq.int_inst_queue_wakeup_accesses      1468657                       # Number of integer instruction queue wakeup accesses
system.cpu.iq.int_inst_queue_writes           2481436                       # Number of integer instruction queue writes
system.cpu.iq.iqInstsAdded                    1759261                       # Number of instructions added to the IQ (excludes non-spec)
system.cpu.iq.iqInstsIssued                   1552207                       # Number of instructions issued
system.cpu.iq.iqNonSpecInstsAdded                 287                       # Number of non-speculative instructions added to the IQ
system.cpu.iq.iqSquashedInstsExamined          724193                       # Number of squashed instructions iterated over during squash; mainly for profiling
system.cpu.iq.iqSquashedInstsIssued             27353                       # Number of squashed instructions issued
system.cpu.iq.iqSquashedNonSpecRemoved            118                       # Number of squashed non-spec instructions that were removed
system.cpu.iq.iqSquashedOperandsExamined       572682                       # Number of squashed operands that are examined and possibly removed from graph
system.cpu.iq.issued_per_cycle::samples       1516738                       # Number of insts issued each cycle
system.cpu.iq.issued_per_cycle::mean         1.023385                       # Number of insts issued each cycle
system.cpu.iq.issued_per_cycle::stdev        1.617037                       # Number of insts issued each cycle
system.cpu.iq.issued_per_cycle::underflows            0      0.00%      0.00% # Number of insts issued each cycle
system.cpu.iq.issued_per_cycle::0              885916     58.41%     58.41% # Number of insts issued each cycle
system.cpu.iq.issued_per_cycle::1              230297     15.18%     73.59% # Number of insts issued each cycle
system.cpu.iq.issued_per_cycle::2              176909     11.66%     85.26% # Number of insts issued each cycle
system.cpu.iq.issued_per_cycle::3               86355      5.69%     90.95% # Number of insts issued each cycle
system.cpu.iq.issued_per_cycle::4               49966      3.29%     94.24% # Number of insts issued each cycle
system.cpu.iq.issued_per_cycle::5               41371      2.73%     96.97% # Number of insts issued each cycle
system.cpu.iq.issued_per_cycle::6               21374      1.41%     98.38% # Number of insts issued each cycle
system.cpu.iq.issued_per_cycle::7               22336      1.47%     99.85% # Number of insts issued each cycle
system.cpu.iq.issued_per_cycle::8                2214      0.15%    100.00% # Number of insts issued each cycle
system.cpu.iq.issued_per_cycle::overflows            0      0.00%    100.00% # Number of insts issued each cycle
system.cpu.iq.issued_per_cycle::min_value            0                       # Number of insts issued each cycle
system.cpu.iq.issued_per_cycle::max_value            8                       # Number of insts issued each cycle
system.cpu.iq.issued_per_cycle::total         1516738                       # Number of insts issued each cycle
system.cpu.iq.rate                           0.991266                       # Inst issue rate
system.cpu.iq.vec_alu_accesses                   1537                       # Number of vector alu accesses
system.cpu.iq.vec_inst_queue_reads               3064                       # Number of vector instruction queue reads
system.cpu.iq.vec_inst_queue_wakeup_accesses         1384                       # Number of vector instruction queue wakeup accesses
system.cpu.iq.vec_inst_queue_writes              2333                       # Number of vector instruction queue writes
system.cpu.itb.accesses                             0                       # DTB accesses
system.cpu.itb.align_faults                         0                       # Number of TLB faults due to alignment restrictions
system.cpu.itb.domain_faults                        0                       # Number of TLB faults due to domain restrictions
system.cpu.itb.flush_entries                        0                       # Number of entries that have been flushed from TLB
system.cpu.itb.flush_tlb                            0                       # Number of times complete TLB was flushed
system.cpu.itb.flush_tlb_asid                       0                       # Number of times TLB was flushed by ASID
system.cpu.itb.flush_tlb_mva                        0                       # Number of times TLB was flushed by MVA
system.cpu.itb.flush_tlb_mva_asid                   0                       # Number of times TLB was flushed by MVA & ASID
system.cpu.itb.hits                                 0                       # DTB hits
system.cpu.itb.inst_accesses                        0                       # ITB inst accesses
system.cpu.itb.inst_hits                            0                       # ITB inst hits
system.cpu.itb.inst_misses                          0                       # ITB inst misses
system.cpu.itb.misses                               0                       # DTB misses
system.cpu.itb.perms_faults                         0                       # Number of TLB faults due to permissions restrictions
system.cpu.itb.prefetch_faults                      0                       # Number of TLB faults due to prefetch
system.cpu.itb.read_accesses                        0                       # DTB read accesses
system.cpu.itb.read_hits                            0                       # DTB read hits
system.cpu.itb.read_misses                          0                       # DTB read misses
system.cpu.itb.stage2_mmu.stage2_tlb.accesses            0                       # DTB accesses
system.cpu.itb.stage2_mmu.stage2_tlb.align_faults            0                       # Number of TLB faults due to alignment restrictions
system.cpu.itb.stage2_mmu.stage2_tlb.domain_faults            0                       # Number of TLB faults due to domain restrictions
system.cpu.itb.stage2_mmu.stage2_tlb.flush_entries            0                       # Number of entries that have been flushed from TLB
system.cpu.itb.stage2_mmu.stage2_tlb.flush_tlb            0                       # Number of times complete TLB was flushed
system.cpu.itb.stage2_mmu.stage2_tlb.flush_tlb_asid            0                       # Number of times TLB was flushed by ASID
system.cpu.itb.stage2_mmu.stage2_tlb.flush_tlb_mva            0                       # Number of times TLB was flushed by MVA
system.cpu.itb.stage2_mmu.stage2_tlb.flush_tlb_mva_asid            0                       # Number of times TLB was flushed by MVA & ASID
system.cpu.itb.stage2_mmu.stage2_tlb.hits            0                       # DTB hits
system.cpu.itb.stage2_mmu.stage2_tlb.inst_accesses            0                       # ITB inst accesses
system.cpu.itb.stage2_mmu.stage2_tlb.inst_hits            0                       # ITB inst hits
system.cpu.itb.stage2_mmu.stage2_tlb.inst_misses            0                       # ITB inst misses
system.cpu.itb.stage2_mmu.stage2_tlb.misses            0                       # DTB misses
system.cpu.itb.stage2_mmu.stage2_tlb.perms_faults            0                       # Number of TLB faults due to permissions restrictions
system.cpu.itb.stage2_mmu.stage2_tlb.prefetch_faults            0                       # Number of TLB faults due to prefetch
system.cpu.itb.stage2_mmu.stage2_tlb.read_accesses            0                       # DTB read accesses
system.cpu.itb.stage2_mmu.stage2_tlb.read_hits            0                       # DTB read hits
system.cpu.itb.stage2_mmu.stage2_tlb.read_misses            0                       # DTB read misses
system.cpu.itb.stage2_mmu.stage2_tlb.walker.walkRequestOrigin_Requested::Data            0                       # Table walker requests started/completed, data/inst
system.cpu.itb.stage2_mmu.stage2_tlb.walker.walkRequestOrigin_Requested::Inst            0                       # Table walker requests started/completed, data/inst
system.cpu.itb.stage2_mmu.stage2_tlb.walker.walkRequestOrigin_Requested::total            0                       # Table walker requests started/completed, data/inst
system.cpu.itb.stage2_mmu.stage2_tlb.walker.walkRequestOrigin_Completed::Data            0                       # Table walker requests started/completed, data/inst
system.cpu.itb.stage2_mmu.stage2_tlb.walker.walkRequestOrigin_Completed::Inst            0                       # Table walker requests started/completed, data/inst
system.cpu.itb.stage2_mmu.stage2_tlb.walker.walkRequestOrigin_Completed::total            0                       # Table walker requests started/completed, data/inst
system.cpu.itb.stage2_mmu.stage2_tlb.walker.walkRequestOrigin::total            0                       # Table walker requests started/completed, data/inst
system.cpu.itb.stage2_mmu.stage2_tlb.walker.walks            0                       # Table walker walks requested
system.cpu.itb.stage2_mmu.stage2_tlb.write_accesses            0                       # DTB write accesses
system.cpu.itb.stage2_mmu.stage2_tlb.write_hits            0                       # DTB write hits
system.cpu.itb.stage2_mmu.stage2_tlb.write_misses            0                       # DTB write misses
system.cpu.itb.walker.walkRequestOrigin_Requested::Data            0                       # Table walker requests started/completed, data/inst
system.cpu.itb.walker.walkRequestOrigin_Requested::Inst            0                       # Table walker requests started/completed, data/inst
system.cpu.itb.walker.walkRequestOrigin_Requested::total            0                       # Table walker requests started/completed, data/inst
system.cpu.itb.walker.walkRequestOrigin_Completed::Data            0                       # Table walker requests started/completed, data/inst
system.cpu.itb.walker.walkRequestOrigin_Completed::Inst            0                       # Table walker requests started/completed, data/inst
system.cpu.itb.walker.walkRequestOrigin_Completed::total            0                       # Table walker requests started/completed, data/inst
system.cpu.itb.walker.walkRequestOrigin::total            0                       # Table walker requests started/completed, data/inst
system.cpu.itb.walker.walks                         0                       # Table walker walks requested
system.cpu.itb.write_accesses                       0                       # DTB write accesses
system.cpu.itb.write_hits                           0                       # DTB write hits
system.cpu.itb.write_misses                         0                       # DTB write misses
system.cpu.memDep0.conflictingLoads               820                       # Number of conflicting loads.
system.cpu.memDep0.conflictingStores               25                       # Number of conflicting stores.
system.cpu.memDep0.insertedLoads               289260                       # Number of loads inserted to the mem dependence unit.
system.cpu.memDep0.insertedStores              235973                       # Number of stores inserted to the mem dependence unit.
system.cpu.misc_regfile_reads                  964457                       # number of misc regfile reads
system.cpu.misc_regfile_writes                    569                       # number of misc regfile writes
system.cpu.numCycles                          1565884                       # number of cpu cycles simulated
system.cpu.numWorkItemsCompleted                    0                       # number of work items this cpu completed
system.cpu.numWorkItemsStarted                      0                       # number of work items this cpu started
system.cpu.rename.BlockCycles                  350724                       # Number of cycles rename is blocking
system.cpu.rename.CommittedMaps                914731                       # Number of HB maps that are committed
system.cpu.rename.IQFullEvents                 157419                       # Number of times rename has blocked due to IQ full
system.cpu.rename.IdleCycles                   172559                       # Number of cycles rename is idle
system.cpu.rename.ROBFullEvents                    19                       # Number of times rename has blocked due to ROB full
system.cpu.rename.RenameLookups               2851268                       # Number of register rename lookups that rename has made
system.cpu.rename.RenamedInsts                1801740                       # Number of instructions processed by rename
system.cpu.rename.RenamedOperands             1580083                       # Number of destination operands rename has renamed
system.cpu.rename.RunCycles                    265713                       # Number of cycles rename is running
system.cpu.rename.SQFullEvents                 595907                       # Number of times rename has blocked due to SQ full
system.cpu.rename.SquashCycles                  10507                       # Number of cycles rename is squashing
system.cpu.rename.UnblockCycles                705120                       # Number of cycles rename is unblocking
system.cpu.rename.UndoneMaps                   665295                       # Number of HB maps that are undone due to squashing
system.cpu.rename.int_rename_lookups          2750405                       # Number of integer rename lookups
system.cpu.rename.serializeStallCycles          12115                       # count of cycles rename stalled for serializing inst
system.cpu.rename.serializingInsts                935                       # count of serializing insts renamed
system.cpu.rename.skidInsts                    255827                       # count of insts added to the skid buffer
system.cpu.rename.tempSerializingInsts            300                       # count of temporary serializing insts renamed
system.cpu.rename.vec_rename_lookups             2222                       # Number of vector rename lookups
system.cpu.rob.rob_reads                      2931995                       # The number of ROB reads
system.cpu.rob.rob_writes                     3289534                       # The number of ROB writes
system.cpu.timesIdled                             647                       # Number of times that the entire CPU went into an idle state and unscheduled itself
system.cpu.vec_regfile_reads                     1764                       # number of vector regfile reads
system.cpu.vec_regfile_writes                     857                       # number of vector regfile writes
system.cpu.workload.numSyscalls                    26                       # Number of system calls
system.membus.snoop_filter.hit_multi_requests            0                       # Number of requests hitting in the snoop filter with multiple (>1) holders of the requested data.
system.membus.snoop_filter.hit_multi_snoops            0                       # Number of snoops hitting in the snoop filter with multiple (>1) holders of the requested data.
system.membus.snoop_filter.hit_single_requests        13071                       # Number of requests hitting in the snoop filter with a single holder of the requested data.
system.membus.snoop_filter.hit_single_snoops            0                       # Number of snoops hitting in the snoop filter with a single holder of the requested data.
system.membus.snoop_filter.tot_requests         29040                       # Total number of requests made to the snoop filter.
system.membus.snoop_filter.tot_snoops               0                       # Total number of snoops made to the snoop filter.
system.tol2bus.snoop_filter.hit_multi_requests            1                       # Number of requests hitting in the snoop filter with multiple (>1) holders of the requested data.
system.tol2bus.snoop_filter.hit_multi_snoops            0                       # Number of snoops hitting in the snoop filter with multiple (>1) holders of the requested data.
system.tol2bus.snoop_filter.hit_single_requests        16001                       # Number of requests hitting in the snoop filter with a single holder of the requested data.
system.tol2bus.snoop_filter.hit_single_snoops           16                       # Number of snoops hitting in the snoop filter with a single holder of the requested data.
system.tol2bus.snoop_filter.tot_requests        32569                       # Total number of requests made to the snoop filter.
system.tol2bus.snoop_filter.tot_snoops             16                       # Total number of snoops made to the snoop filter.
system.membus.trans_dist::ReadResp                759                       # Transaction distribution
system.membus.trans_dist::WritebackDirty        13041                       # Transaction distribution
system.membus.trans_dist::CleanEvict               30                       # Transaction distribution
system.membus.trans_dist::ReadExReq             15203                       # Transaction distribution
system.membus.trans_dist::ReadExResp            15201                       # Transaction distribution
system.membus.trans_dist::ReadSharedReq           759                       # Transaction distribution
system.membus.trans_dist::InvalidateReq             7                       # Transaction distribution
system.membus.pkt_count_system.l2.mem_side::system.mem_ctrls.port        45000                       # Packet count per connected master and slave (bytes)
system.membus.pkt_count::total                  45000                       # Packet count per connected master and slave (bytes)
system.membus.pkt_size_system.l2.mem_side::system.mem_ctrls.port      1856064                       # Cumulative packet size per connected master and slave (bytes)
system.membus.pkt_size::total                 1856064                       # Cumulative packet size per connected master and slave (bytes)
system.membus.snoops                                0                       # Total snoops (count)
system.membus.snoopTraffic                          0                       # Total snoop traffic (bytes)
system.membus.snoop_fanout::samples             15969                       # Request fanout histogram
system.membus.snoop_fanout::mean                    0                       # Request fanout histogram
system.membus.snoop_fanout::stdev                   0                       # Request fanout histogram
system.membus.snoop_fanout::underflows              0      0.00%      0.00% # Request fanout histogram
system.membus.snoop_fanout::0                   15969    100.00%    100.00% # Request fanout histogram
system.membus.snoop_fanout::1                       0      0.00%    100.00% # Request fanout histogram
system.membus.snoop_fanout::overflows               0      0.00%    100.00% # Request fanout histogram
system.membus.snoop_fanout::min_value               0                       # Request fanout histogram
system.membus.snoop_fanout::max_value               0                       # Request fanout histogram
system.membus.snoop_fanout::total               15969                       # Request fanout histogram
system.membus.reqLayer0.occupancy            83592500                       # Layer occupancy (ticks)
system.membus.reqLayer0.utilization              10.7                       # Layer utilization (%)
system.membus.respLayer1.occupancy           83619750                       # Layer occupancy (ticks)
system.membus.respLayer1.utilization             10.7                       # Layer utilization (%)
system.membus.power_state.pwrStateResidencyTicks::UNDEFINED    782941500                       # Cumulative time (in ticks) in various power states
system.tol2bus.trans_dist::ReadResp              1357                       # Transaction distribution
system.tol2bus.trans_dist::WritebackDirty        28067                       # Transaction distribution
system.tol2bus.trans_dist::WritebackClean          967                       # Transaction distribution
system.tol2bus.trans_dist::CleanEvict              54                       # Transaction distribution
system.tol2bus.trans_dist::ReadExReq            15204                       # Transaction distribution
system.tol2bus.trans_dist::ReadExResp           15202                       # Transaction distribution
system.tol2bus.trans_dist::ReadCleanReq          1216                       # Transaction distribution
system.tol2bus.trans_dist::ReadSharedReq          141                       # Transaction distribution
system.tol2bus.trans_dist::InvalidateReq            7                       # Transaction distribution
system.tol2bus.trans_dist::InvalidateResp            7                       # Transaction distribution
system.tol2bus.pkt_count_system.cpu.icache.mem_side::system.l2.cpu_side         3399                       # Packet count per connected master and slave (bytes)
system.tol2bus.pkt_count_system.cpu.dcache.mem_side::system.l2.cpu_side        45736                       # Packet count per connected master and slave (bytes)
system.tol2bus.pkt_count::total                 49135                       # Packet count per connected master and slave (bytes)
system.tol2bus.pkt_size_system.cpu.icache.mem_side::system.l2.cpu_side       139712                       # Cumulative packet size per connected master and slave (bytes)
system.tol2bus.pkt_size_system.cpu.dcache.mem_side::system.l2.cpu_side      1943616                       # Cumulative packet size per connected master and slave (bytes)
system.tol2bus.pkt_size::total                2083328                       # Cumulative packet size per connected master and slave (bytes)
system.tol2bus.snoops                           13087                       # Total snoops (count)
system.tol2bus.snoopTraffic                    834624                       # Total snoop traffic (bytes)
system.tol2bus.snoop_fanout::samples            29655                       # Request fanout histogram
system.tol2bus.snoop_fanout::mean            0.000573                       # Request fanout histogram
system.tol2bus.snoop_fanout::stdev           0.023936                       # Request fanout histogram
system.tol2bus.snoop_fanout::underflows             0      0.00%      0.00% # Request fanout histogram
system.tol2bus.snoop_fanout::0                  29638     99.94%     99.94% # Request fanout histogram
system.tol2bus.snoop_fanout::1                     17      0.06%    100.00% # Request fanout histogram
system.tol2bus.snoop_fanout::2                      0      0.00%    100.00% # Request fanout histogram
system.tol2bus.snoop_fanout::overflows              0      0.00%    100.00% # Request fanout histogram
system.tol2bus.snoop_fanout::min_value              0                       # Request fanout histogram
system.tol2bus.snoop_fanout::max_value              1                       # Request fanout histogram
system.tol2bus.snoop_fanout::total              29655                       # Request fanout histogram
system.tol2bus.reqLayer0.occupancy           32277500                       # Layer occupancy (ticks)
system.tol2bus.reqLayer0.utilization              4.1                       # Layer utilization (%)
system.tol2bus.respLayer1.occupancy          23018000                       # Layer occupancy (ticks)
system.tol2bus.respLayer1.utilization             2.9                       # Layer utilization (%)
system.tol2bus.respLayer0.occupancy           1824000                       # Layer occupancy (ticks)
system.tol2bus.respLayer0.utilization             0.2                       # Layer utilization (%)
system.tol2bus.power_state.pwrStateResidencyTicks::UNDEFINED    782941500                       # Cumulative time (in ticks) in various power states
system.voltage_domain.voltage                       1                       # Voltage in Volts
system.clk_domain.clock                          1000                       # Clock period in ticks
system.l2.demand_hits::.cpu.inst                  598                       # number of demand (read+write) hits
system.l2.demand_hits::.cpu.data                    1                       # number of demand (read+write) hits
system.l2.demand_hits::total                      599                       # number of demand (read+write) hits
system.l2.overall_hits::.cpu.inst                 598                       # number of overall hits
system.l2.overall_hits::.cpu.data                   1                       # number of overall hits
system.l2.overall_hits::total                     599                       # number of overall hits
system.l2.demand_misses::.cpu.inst                618                       # number of demand (read+write) misses
system.l2.demand_misses::.cpu.data              15344                       # number of demand (read+write) misses
system.l2.demand_misses::total                  15962                       # number of demand (read+write) misses
system.l2.overall_misses::.cpu.inst               618                       # number of overall misses
system.l2.overall_misses::.cpu.data             15344                       # number of overall misses
system.l2.overall_misses::total                 15962                       # number of overall misses
system.l2.demand_miss_latency::.cpu.inst     49608000                       # number of demand (read+write) miss cycles
system.l2.demand_miss_latency::.cpu.data   1332081500                       # number of demand (read+write) miss cycles
system.l2.demand_miss_latency::total       1381689500                       # number of demand (read+write) miss cycles
system.l2.overall_miss_latency::.cpu.inst     49608000                       # number of overall miss cycles
system.l2.overall_miss_latency::.cpu.data   1332081500                       # number of overall miss cycles
system.l2.overall_miss_latency::total      1381689500                       # number of overall miss cycles
system.l2.demand_accesses::.cpu.inst             1216                       # number of demand (read+write) accesses
system.l2.demand_accesses::.cpu.data            15345                       # number of demand (read+write) accesses
system.l2.demand_accesses::total                16561                       # number of demand (read+write) accesses
system.l2.overall_accesses::.cpu.inst            1216                       # number of overall (read+write) accesses
system.l2.overall_accesses::.cpu.data           15345                       # number of overall (read+write) accesses
system.l2.overall_accesses::total               16561                       # number of overall (read+write) accesses
system.l2.demand_miss_rate::.cpu.inst        0.508224                       # miss rate for demand accesses
system.l2.demand_miss_rate::.cpu.data        0.999935                       # miss rate for demand accesses
system.l2.demand_miss_rate::total            0.963831                       # miss rate for demand accesses
system.l2.overall_miss_rate::.cpu.inst       0.508224                       # miss rate for overall accesses
system.l2.overall_miss_rate::.cpu.data       0.999935                       # miss rate for overall accesses
system.l2.overall_miss_rate::total           0.963831                       # miss rate for overall accesses
system.l2.demand_avg_miss_latency::.cpu.inst 80271.844660                       # average overall miss latency
system.l2.demand_avg_miss_latency::.cpu.data 86814.487748                       # average overall miss latency
system.l2.demand_avg_miss_latency::total 86561.176544                       # average overall miss latency
system.l2.overall_avg_miss_latency::.cpu.inst 80271.844660                       # average overall miss latency
system.l2.overall_avg_miss_latency::.cpu.data 86814.487748                       # average overall miss latency
system.l2.overall_avg_miss_latency::total 86561.176544                       # average overall miss latency
system.l2.blocked_cycles::no_mshrs                  0                       # number of cycles access was blocked
system.l2.blocked_cycles::no_targets                0                       # number of cycles access was blocked
system.l2.blocked::no_mshrs                         0                       # number of cycles access was blocked
system.l2.blocked::no_targets                       0                       # number of cycles access was blocked
system.l2.avg_blocked_cycles::no_mshrs            nan                       # average number of cycles each access was blocked
system.l2.avg_blocked_cycles::no_targets          nan                       # average number of cycles each access was blocked
system.l2.writebacks::.writebacks               13041                       # number of writebacks
system.l2.writebacks::total                     13041                       # number of writebacks
system.l2.demand_mshr_misses::.cpu.inst           618                       # number of demand (read+write) MSHR misses
system.l2.demand_mshr_misses::.cpu.data         15344                       # number of demand (read+write) MSHR misses
system.l2.demand_mshr_misses::total             15962                       # number of demand (read+write) MSHR misses
system.l2.overall_mshr_misses::.cpu.inst          618                       # number of overall MSHR misses
system.l2.overall_mshr_misses::.cpu.data        15344                       # number of overall MSHR misses
system.l2.overall_mshr_misses::total            15962                       # number of overall MSHR misses
system.l2.demand_mshr_miss_latency::.cpu.inst     43428000                       # number of demand (read+write) MSHR miss cycles
system.l2.demand_mshr_miss_latency::.cpu.data   1178661500                       # number of demand (read+write) MSHR miss cycles
system.l2.demand_mshr_miss_latency::total   1222089500                       # number of demand (read+write) MSHR miss cycles
system.l2.overall_mshr_miss_latency::.cpu.inst     43428000                       # number of overall MSHR miss cycles
system.l2.overall_mshr_miss_latency::.cpu.data   1178661500                       # number of overall MSHR miss cycles
system.l2.overall_mshr_miss_latency::total   1222089500                       # number of overall MSHR miss cycles
system.l2.demand_mshr_miss_rate::.cpu.inst     0.508224                       # mshr miss rate for demand accesses
system.l2.demand_mshr_miss_rate::.cpu.data     0.999935                       # mshr miss rate for demand accesses
system.l2.demand_mshr_miss_rate::total       0.963831                       # mshr miss rate for demand accesses
system.l2.overall_mshr_miss_rate::.cpu.inst     0.508224                       # mshr miss rate for overall accesses
system.l2.overall_mshr_miss_rate::.cpu.data     0.999935                       # mshr miss rate for overall accesses
system.l2.overall_mshr_miss_rate::total      0.963831                       # mshr miss rate for overall accesses
system.l2.demand_avg_mshr_miss_latency::.cpu.inst 70271.844660                       # average overall mshr miss latency
system.l2.demand_avg_mshr_miss_latency::.cpu.data 76815.791189                       # average overall mshr miss latency
system.l2.demand_avg_mshr_miss_latency::total 76562.429520                       # average overall mshr miss latency
system.l2.overall_avg_mshr_miss_latency::.cpu.inst 70271.844660                       # average overall mshr miss latency
system.l2.overall_avg_mshr_miss_latency::.cpu.data 76815.791189                       # average overall mshr miss latency
system.l2.overall_avg_mshr_miss_latency::total 76562.429520                       # average overall mshr miss latency
system.l2.replacements                          13087                       # number of replacements
system.l2.WritebackDirty_hits::.writebacks        15026                       # number of WritebackDirty hits
system.l2.WritebackDirty_hits::total            15026                       # number of WritebackDirty hits
system.l2.WritebackDirty_accesses::.writebacks        15026                       # number of WritebackDirty accesses(hits+misses)
system.l2.WritebackDirty_accesses::total        15026                       # number of WritebackDirty accesses(hits+misses)
system.l2.WritebackClean_hits::.writebacks          966                       # number of WritebackClean hits
system.l2.WritebackClean_hits::total              966                       # number of WritebackClean hits
system.l2.WritebackClean_accesses::.writebacks          966                       # number of WritebackClean accesses(hits+misses)
system.l2.WritebackClean_accesses::total          966                       # number of WritebackClean accesses(hits+misses)
system.l2.ReadExReq_hits::.cpu.data                 1                       # number of ReadExReq hits
system.l2.ReadExReq_hits::total                     1                       # number of ReadExReq hits
system.l2.ReadExReq_misses::.cpu.data           15203                       # number of ReadExReq misses
system.l2.ReadExReq_misses::total               15203                       # number of ReadExReq misses
system.l2.ReadExReq_miss_latency::.cpu.data   1320602000                       # number of ReadExReq miss cycles
system.l2.ReadExReq_miss_latency::total    1320602000                       # number of ReadExReq miss cycles
system.l2.ReadExReq_accesses::.cpu.data         15204                       # number of ReadExReq accesses(hits+misses)
system.l2.ReadExReq_accesses::total             15204                       # number of ReadExReq accesses(hits+misses)
system.l2.ReadExReq_miss_rate::.cpu.data     0.999934                       # miss rate for ReadExReq accesses
system.l2.ReadExReq_miss_rate::total         0.999934                       # miss rate for ReadExReq accesses
system.l2.ReadExReq_avg_miss_latency::.cpu.data 86864.566204                       # average ReadExReq miss latency
system.l2.ReadExReq_avg_miss_latency::total 86864.566204                       # average ReadExReq miss latency
system.l2.ReadExReq_mshr_misses::.cpu.data        15203                       # number of ReadExReq MSHR misses
system.l2.ReadExReq_mshr_misses::total          15203                       # number of ReadExReq MSHR misses
system.l2.ReadExReq_mshr_miss_latency::.cpu.data   1168592000                       # number of ReadExReq MSHR miss cycles
system.l2.ReadExReq_mshr_miss_latency::total   1168592000                       # number of ReadExReq MSHR miss cycles
system.l2.ReadExReq_mshr_miss_rate::.cpu.data     0.999934                       # mshr miss rate for ReadExReq accesses
system.l2.ReadExReq_mshr_miss_rate::total     0.999934                       # mshr miss rate for ReadExReq accesses
system.l2.ReadExReq_avg_mshr_miss_latency::.cpu.data 76865.881734                       # average ReadExReq mshr miss latency
system.l2.ReadExReq_avg_mshr_miss_latency::total 76865.881734                       # average ReadExReq mshr miss latency
system.l2.ReadCleanReq_hits::.cpu.inst            598                       # number of ReadCleanReq hits
system.l2.ReadCleanReq_hits::total                598                       # number of ReadCleanReq hits
system.l2.ReadCleanReq_misses::.cpu.inst          618                       # number of ReadCleanReq misses
system.l2.ReadCleanReq_misses::total              618                       # number of ReadCleanReq misses
system.l2.ReadCleanReq_miss_latency::.cpu.inst     49608000                       # number of ReadCleanReq miss cycles
system.l2.ReadCleanReq_miss_latency::total     49608000                       # number of ReadCleanReq miss cycles
system.l2.ReadCleanReq_accesses::.cpu.inst         1216                       # number of ReadCleanReq accesses(hits+misses)
system.l2.ReadCleanReq_accesses::total           1216                       # number of ReadCleanReq accesses(hits+misses)
system.l2.ReadCleanReq_miss_rate::.cpu.inst     0.508224                       # miss rate for ReadCleanReq accesses
system.l2.ReadCleanReq_miss_rate::total      0.508224                       # miss rate for ReadCleanReq accesses
system.l2.ReadCleanReq_avg_miss_latency::.cpu.inst 80271.844660                       # average ReadCleanReq miss latency
system.l2.ReadCleanReq_avg_miss_latency::total 80271.844660                       # average ReadCleanReq miss latency
system.l2.ReadCleanReq_mshr_misses::.cpu.inst          618                       # number of ReadCleanReq MSHR misses
system.l2.ReadCleanReq_mshr_misses::total          618                       # number of ReadCleanReq MSHR misses
system.l2.ReadCleanReq_mshr_miss_latency::.cpu.inst     43428000                       # number of ReadCleanReq MSHR miss cycles
system.l2.ReadCleanReq_mshr_miss_latency::total     43428000                       # number of ReadCleanReq MSHR miss cycles
system.l2.ReadCleanReq_mshr_miss_rate::.cpu.inst     0.508224                       # mshr miss rate for ReadCleanReq accesses
system.l2.ReadCleanReq_mshr_miss_rate::total     0.508224                       # mshr miss rate for ReadCleanReq accesses
[...]
system.cpu.dcache.overall_misses::total        128964                       # number of overall misses
system.cpu.dcache.demand_miss_latency::.cpu.data   9606425016                       # number of demand (read+write) miss cycles
system.cpu.dcache.demand_miss_latency::total   9606425016                       # number of demand (read+write) miss cycles
system.cpu.dcache.overall_miss_latency::.cpu.data   9606425016                       # number of overall miss cycles
system.cpu.dcache.overall_miss_latency::total   9606425016                       # number of overall miss cycles
system.cpu.dcache.demand_accesses::.cpu.data       412185                       # number of demand (read+write) accesses
system.cpu.dcache.demand_accesses::total       412185                       # number of demand (read+write) accesses
system.cpu.dcache.overall_accesses::.cpu.data       412241                       # number of overall (read+write) accesses
system.cpu.dcache.overall_accesses::total       412241                       # number of overall (read+write) accesses
system.cpu.dcache.demand_miss_rate::.cpu.data     0.312872                       # miss rate for demand accesses
system.cpu.dcache.demand_miss_rate::total     0.312872                       # miss rate for demand accesses
system.cpu.dcache.overall_miss_rate::.cpu.data     0.312836                       # miss rate for overall accesses
system.cpu.dcache.overall_miss_rate::total     0.312836                       # miss rate for overall accesses
system.cpu.dcache.demand_avg_miss_latency::.cpu.data 74490.931491                       # average overall miss latency
system.cpu.dcache.demand_avg_miss_latency::total 74490.931491                       # average overall miss latency
system.cpu.dcache.overall_avg_miss_latency::.cpu.data 74489.198660                       # average overall miss latency
system.cpu.dcache.overall_avg_miss_latency::total 74489.198660                       # average overall miss latency
system.cpu.dcache.blocked_cycles::no_mshrs       157394                       # number of cycles access was blocked
system.cpu.dcache.blocked_cycles::no_targets            0                       # number of cycles access was blocked
system.cpu.dcache.blocked::no_mshrs              3001                       # number of cycles access was blocked
system.cpu.dcache.blocked::no_targets               0                       # number of cycles access was blocked
system.cpu.dcache.avg_blocked_cycles::no_mshrs    52.447184                       # average number of cycles each access was blocked
system.cpu.dcache.avg_blocked_cycles::no_targets          nan                       # average number of cycles each access was blocked
system.cpu.dcache.writebacks::.writebacks        15026                       # number of writebacks
system.cpu.dcache.writebacks::total             15026                       # number of writebacks
system.cpu.dcache.demand_mshr_hits::.cpu.data       113612                       # number of demand (read+write) MSHR hits
system.cpu.dcache.demand_mshr_hits::total       113612                       # number of demand (read+write) MSHR hits
system.cpu.dcache.overall_mshr_hits::.cpu.data       113612                       # number of overall MSHR hits
system.cpu.dcache.overall_mshr_hits::total       113612                       # number of overall MSHR hits
system.cpu.dcache.demand_mshr_misses::.cpu.data        15349                       # number of demand (read+write) MSHR misses
system.cpu.dcache.demand_mshr_misses::total        15349                       # number of demand (read+write) MSHR misses
system.cpu.dcache.overall_mshr_misses::.cpu.data        15351                       # number of overall MSHR misses
system.cpu.dcache.overall_mshr_misses::total        15351                       # number of overall MSHR misses
system.cpu.dcache.demand_mshr_miss_latency::.cpu.data   1355065495                       # number of demand (read+write) MSHR miss cycles
system.cpu.dcache.demand_mshr_miss_latency::total   1355065495                       # number of demand (read+write) MSHR miss cycles
system.cpu.dcache.overall_mshr_miss_latency::.cpu.data   1355242495                       # number of overall MSHR miss cycles
system.cpu.dcache.overall_mshr_miss_latency::total   1355242495                       # number of overall MSHR miss cycles
system.cpu.dcache.demand_mshr_miss_rate::.cpu.data     0.037238                       # mshr miss rate for demand accesses
system.cpu.dcache.demand_mshr_miss_rate::total     0.037238                       # mshr miss rate for demand accesses
system.cpu.dcache.overall_mshr_miss_rate::.cpu.data     0.037238                       # mshr miss rate for overall accesses
system.cpu.dcache.overall_mshr_miss_rate::total     0.037238                       # mshr miss rate for overall accesses
system.cpu.dcache.demand_avg_mshr_miss_latency::.cpu.data 88283.633787                       # average overall mshr miss latency
system.cpu.dcache.demand_avg_mshr_miss_latency::total 88283.633787                       # average overall mshr miss latency
system.cpu.dcache.overall_avg_mshr_miss_latency::.cpu.data 88283.661976                       # average overall mshr miss latency
system.cpu.dcache.overall_avg_mshr_miss_latency::total 88283.661976                       # average overall mshr miss latency
system.cpu.dcache.replacements                  15034                       # number of replacements
system.cpu.dcache.ReadReq_hits::.cpu.data       278078                       # number of ReadReq hits
system.cpu.dcache.ReadReq_hits::total          278078                       # number of ReadReq hits
system.cpu.dcache.ReadReq_misses::.cpu.data          287                       # number of ReadReq misses
system.cpu.dcache.ReadReq_misses::total           287                       # number of ReadReq misses
system.cpu.dcache.ReadReq_miss_latency::.cpu.data     20988500                       # number of ReadReq miss cycles
system.cpu.dcache.ReadReq_miss_latency::total     20988500                       # number of ReadReq miss cycles
system.cpu.dcache.ReadReq_accesses::.cpu.data       278365                       # number of ReadReq accesses(hits+misses)
system.cpu.dcache.ReadReq_accesses::total       278365                       # number of ReadReq accesses(hits+misses)
system.cpu.dcache.ReadReq_miss_rate::.cpu.data     0.001031                       # miss rate for ReadReq accesses
system.cpu.dcache.ReadReq_miss_rate::total     0.001031                       # miss rate for ReadReq accesses
system.cpu.dcache.ReadReq_avg_miss_latency::.cpu.data 73130.662021                       # average ReadReq miss latency
system.cpu.dcache.ReadReq_avg_miss_latency::total 73130.662021                       # average ReadReq miss latency
system.cpu.dcache.ReadReq_mshr_hits::.cpu.data          149                       # number of ReadReq MSHR hits
system.cpu.dcache.ReadReq_mshr_hits::total          149                       # number of ReadReq MSHR hits
system.cpu.dcache.ReadReq_mshr_misses::.cpu.data          138                       # number of ReadReq MSHR misses
system.cpu.dcache.ReadReq_mshr_misses::total          138                       # number of ReadReq MSHR misses
system.cpu.dcache.ReadReq_mshr_miss_latency::.cpu.data     11431000                       # number of ReadReq MSHR miss cycles
system.cpu.dcache.ReadReq_mshr_miss_latency::total     11431000                       # number of ReadReq MSHR miss cycles
system.cpu.dcache.ReadReq_mshr_miss_rate::.cpu.data     0.000496                       # mshr miss rate for ReadReq accesses
system.cpu.dcache.ReadReq_mshr_miss_rate::total     0.000496                       # mshr miss rate for ReadReq accesses
system.cpu.dcache.ReadReq_avg_mshr_miss_latency::.cpu.data 82833.333333                       # average ReadReq mshr miss latency
system.cpu.dcache.ReadReq_avg_mshr_miss_latency::total 82833.333333                       # average ReadReq mshr miss latency
system.cpu.dcache.WriteReq_hits::.cpu.data         5146                       # number of WriteReq hits
system.cpu.dcache.WriteReq_hits::total           5146                       # number of WriteReq hits
system.cpu.dcache.WriteReq_misses::.cpu.data       128667                       # number of WriteReq misses
system.cpu.dcache.WriteReq_misses::total       128667                       # number of WriteReq misses
system.cpu.dcache.WriteReq_miss_latency::.cpu.data   9585215019                       # number of WriteReq miss cycles
system.cpu.dcache.WriteReq_miss_latency::total   9585215019                       # number of WriteReq miss cycles
system.cpu.dcache.WriteReq_accesses::.cpu.data       133813                       # number of WriteReq accesses(hits+misses)
system.cpu.dcache.WriteReq_accesses::total       133813                       # number of WriteReq accesses(hits+misses)
system.cpu.dcache.WriteReq_miss_rate::.cpu.data     0.961543                       # miss rate for WriteReq accesses
system.cpu.dcache.WriteReq_miss_rate::total     0.961543                       # miss rate for WriteReq accesses
system.cpu.dcache.WriteReq_avg_miss_latency::.cpu.data 74496.296789                       # average WriteReq miss latency
system.cpu.dcache.WriteReq_avg_miss_latency::total 74496.296789                       # average WriteReq miss latency
system.cpu.dcache.WriteReq_mshr_hits::.cpu.data       113463                       # number of WriteReq MSHR hits
system.cpu.dcache.WriteReq_mshr_hits::total       113463                       # number of WriteReq MSHR hits
system.cpu.dcache.WriteReq_mshr_misses::.cpu.data        15204                       # number of WriteReq MSHR misses
system.cpu.dcache.WriteReq_mshr_misses::total        15204                       # number of WriteReq MSHR misses
system.cpu.dcache.WriteReq_mshr_miss_latency::.cpu.data   1343419998                       # number of WriteReq MSHR miss cycles
system.cpu.dcache.WriteReq_mshr_miss_latency::total   1343419998                       # number of WriteReq MSHR miss cycles
system.cpu.dcache.WriteReq_mshr_miss_rate::.cpu.data     0.113621                       # mshr miss rate for WriteReq accesses
system.cpu.dcache.WriteReq_mshr_miss_rate::total     0.113621                       # mshr miss rate for WriteReq accesses
system.cpu.dcache.WriteReq_avg_mshr_miss_latency::.cpu.data 88359.642068                       # average WriteReq mshr miss latency
system.cpu.dcache.WriteReq_avg_mshr_miss_latency::total 88359.642068                       # average WriteReq mshr miss latency
system.cpu.dcache.SoftPFReq_hits::.cpu.data           53                       # number of SoftPFReq hits
system.cpu.dcache.SoftPFReq_hits::total            53                       # number of SoftPFReq hits
system.cpu.dcache.SoftPFReq_misses::.cpu.data            3                       # number of SoftPFReq misses
system.cpu.dcache.SoftPFReq_misses::total            3                       # number of SoftPFReq misses
system.cpu.dcache.SoftPFReq_accesses::.cpu.data           56                       # number of SoftPFReq accesses(hits+misses)
system.cpu.dcache.SoftPFReq_accesses::total           56                       # number of SoftPFReq accesses(hits+misses)
system.cpu.dcache.SoftPFReq_miss_rate::.cpu.data     0.053571                       # miss rate for SoftPFReq accesses
system.cpu.dcache.SoftPFReq_miss_rate::total     0.053571                       # miss rate for SoftPFReq accesses
system.cpu.dcache.SoftPFReq_mshr_misses::.cpu.data            2                       # number of SoftPFReq MSHR misses
system.cpu.dcache.SoftPFReq_mshr_misses::total            2                       # number of SoftPFReq MSHR misses
system.cpu.dcache.SoftPFReq_mshr_miss_latency::.cpu.data       177000                       # number of SoftPFReq MSHR miss cycles
system.cpu.dcache.SoftPFReq_mshr_miss_latency::total       177000                       # number of SoftPFReq MSHR miss cycles
system.cpu.dcache.SoftPFReq_mshr_miss_rate::.cpu.data     0.035714                       # mshr miss rate for SoftPFReq accesses
system.cpu.dcache.SoftPFReq_mshr_miss_rate::total     0.035714                       # mshr miss rate for SoftPFReq accesses
system.cpu.dcache.SoftPFReq_avg_mshr_miss_latency::.cpu.data        88500                       # average SoftPFReq mshr miss latency
system.cpu.dcache.SoftPFReq_avg_mshr_miss_latency::total        88500                       # average SoftPFReq mshr miss latency
system.cpu.dcache.WriteLineReq_misses::.cpu.data            7                       # number of WriteLineReq misses
system.cpu.dcache.WriteLineReq_misses::total            7                       # number of WriteLineReq misses
system.cpu.dcache.WriteLineReq_miss_latency::.cpu.data       221497                       # number of WriteLineReq miss cycles
system.cpu.dcache.WriteLineReq_miss_latency::total       221497                       # number of WriteLineReq miss cycles
system.cpu.dcache.WriteLineReq_accesses::.cpu.data            7                       # number of WriteLineReq accesses(hits+misses)
system.cpu.dcache.WriteLineReq_accesses::total            7                       # number of WriteLineReq accesses(hits+misses)
system.cpu.dcache.WriteLineReq_miss_rate::.cpu.data            1                       # miss rate for WriteLineReq accesses
system.cpu.dcache.WriteLineReq_miss_rate::total            1                       # miss rate for WriteLineReq accesses
system.cpu.dcache.WriteLineReq_avg_miss_latency::.cpu.data 31642.428571                       # average WriteLineReq miss latency
system.cpu.dcache.WriteLineReq_avg_miss_latency::total 31642.428571                       # average WriteLineReq miss latency
system.cpu.dcache.WriteLineReq_mshr_misses::.cpu.data            7                       # number of WriteLineReq MSHR misses
system.cpu.dcache.WriteLineReq_mshr_misses::total            7                       # number of WriteLineReq MSHR misses
system.cpu.dcache.WriteLineReq_mshr_miss_latency::.cpu.data       214497                       # number of WriteLineReq MSHR miss cycles
system.cpu.dcache.WriteLineReq_mshr_miss_latency::total       214497                       # number of WriteLineReq MSHR miss cycles
system.cpu.dcache.WriteLineReq_mshr_miss_rate::.cpu.data            1                       # mshr miss rate for WriteLineReq accesses
system.cpu.dcache.WriteLineReq_mshr_miss_rate::total            1                       # mshr miss rate for WriteLineReq accesses
system.cpu.dcache.WriteLineReq_avg_mshr_miss_latency::.cpu.data 30642.428571                       # average WriteLineReq mshr miss latency
system.cpu.dcache.WriteLineReq_avg_mshr_miss_latency::total 30642.428571                       # average WriteLineReq mshr miss latency
system.cpu.dcache.LoadLockedReq_hits::.cpu.data          172                       # number of LoadLockedReq hits
system.cpu.dcache.LoadLockedReq_hits::total          172                       # number of LoadLockedReq hits
system.cpu.dcache.LoadLockedReq_misses::.cpu.data            1                       # number of LoadLockedReq misses
system.cpu.dcache.LoadLockedReq_misses::total            1                       # number of LoadLockedReq misses
system.cpu.dcache.LoadLockedReq_miss_latency::.cpu.data        88000                       # number of LoadLockedReq miss cycles
system.cpu.dcache.LoadLockedReq_miss_latency::total        88000                       # number of LoadLockedReq miss cycles
system.cpu.dcache.LoadLockedReq_accesses::.cpu.data          173                       # number of LoadLockedReq accesses(hits+misses)
system.cpu.dcache.LoadLockedReq_accesses::total          173                       # number of LoadLockedReq accesses(hits+misses)
system.cpu.dcache.LoadLockedReq_miss_rate::.cpu.data     0.005780                       # miss rate for LoadLockedReq accesses
system.cpu.dcache.LoadLockedReq_miss_rate::total     0.005780                       # miss rate for LoadLockedReq accesses
system.cpu.dcache.LoadLockedReq_avg_miss_latency::.cpu.data        88000                       # average LoadLockedReq miss latency
system.cpu.dcache.LoadLockedReq_avg_miss_latency::total        88000                       # average LoadLockedReq miss latency
system.cpu.dcache.LoadLockedReq_mshr_misses::.cpu.data            1                       # number of LoadLockedReq MSHR misses
system.cpu.dcache.LoadLockedReq_mshr_misses::total            1                       # number of LoadLockedReq MSHR misses
system.cpu.dcache.LoadLockedReq_mshr_miss_latency::.cpu.data        87000                       # number of LoadLockedReq MSHR miss cycles
system.cpu.dcache.LoadLockedReq_mshr_miss_latency::total        87000                       # number of LoadLockedReq MSHR miss cycles
system.cpu.dcache.LoadLockedReq_mshr_miss_rate::.cpu.data     0.005780                       # mshr miss rate for LoadLockedReq accesses
system.cpu.dcache.LoadLockedReq_mshr_miss_rate::total     0.005780                       # mshr miss rate for LoadLockedReq accesses
system.cpu.dcache.LoadLockedReq_avg_mshr_miss_latency::.cpu.data        87000                       # average LoadLockedReq mshr miss latency
system.cpu.dcache.LoadLockedReq_avg_mshr_miss_latency::total        87000                       # average LoadLockedReq mshr miss latency
system.cpu.dcache.StoreCondReq_hits::.cpu.data          142                       # number of StoreCondReq hits
system.cpu.dcache.StoreCondReq_hits::total          142                       # number of StoreCondReq hits
system.cpu.dcache.StoreCondReq_accesses::.cpu.data          142                       # number of StoreCondReq accesses(hits+misses)
system.cpu.dcache.StoreCondReq_accesses::total          142                       # number of StoreCondReq accesses(hits+misses)
system.cpu.dcache.power_state.pwrStateResidencyTicks::UNDEFINED    782941500                       # Cumulative time (in ticks) in various power states
system.cpu.dcache.tags.tagsinuse           307.117796                       # Cycle average of tags in use
system.cpu.dcache.tags.total_refs              298941                       # Total number of references to valid blocks.
system.cpu.dcache.tags.sampled_refs             15350                       # Sample count of references to valid blocks.
system.cpu.dcache.tags.avg_refs             19.474984                       # Average number of references to valid blocks.
system.cpu.dcache.tags.warmup_cycle            249500                       # Cycle when the warmup percentage was hit.
system.cpu.dcache.tags.occ_blocks::.cpu.data   307.117796                       # Average occupied blocks per requestor
system.cpu.dcache.tags.occ_percent::.cpu.data     0.299920                       # Average percentage of cache occupancy
system.cpu.dcache.tags.occ_percent::total     0.299920                       # Average percentage of cache occupancy
system.cpu.dcache.tags.occ_task_id_blocks::1024          316                       # Occupied blocks per task id
system.cpu.dcache.tags.age_task_id_blocks_1024::0           64                       # Occupied blocks per task id
system.cpu.dcache.tags.age_task_id_blocks_1024::2          252                       # Occupied blocks per task id
system.cpu.dcache.tags.occ_task_id_percent::1024     0.308594                       # Percentage of cache occupancy per task id
system.cpu.dcache.tags.tag_accesses            840462                       # Number of tag accesses
system.cpu.dcache.tags.data_accesses           840462                       # Number of data accesses
system.cpu.dcache.tags.power_state.pwrStateResidencyTicks::UNDEFINED    782941500                       # Cumulative time (in ticks) in various power states
system.cpu.power_state.pwrStateResidencyTicks::ON    782941500                       # Cumulative time (in ticks) in various power states

---------- End Simulation Statistics   ----------
