
---------- Begin Simulation Statistics ----------
final_tick                                 1120044000                       # Number of ticks from beginning of simulation (restored from checkpoints and never reset)
host_inst_rate                                  37509                       # Simulator instruction rate (inst/s)
host_mem_usage                                 863600                       # Number of bytes of host memory used
host_op_rate                                    37770                       # Simulator op (including micro ops) rate (op/s)
host_seconds                                    26.66                       # Real time elapsed on the host
host_tick_rate                               42011862                       # Simulator tick rate (ticks/s)
sim_freq                                 1000000000000                       # Frequency of simulated ticks
sim_insts                                     1000002                       # Number of instructions simulated
sim_ops                                       1006945                       # Number of ops (including micro ops) simulated
sim_seconds                                  0.001120                       # Number of seconds simulated
sim_ticks                                  1120044000                       # Number of ticks simulated
system.cpu.branchPred.BTBCorrect                    0                       # Number of correct BTB predictions (this stat may not work properly.
system.cpu.branchPred.BTBHitPct             99.466772                       # BTB Hit Percentage
system.cpu.branchPred.BTBHits                  166764                       # Number of BTB hits
system.cpu.branchPred.BTBLookups               167658                       # Number of BTB lookups
system.cpu.branchPred.RASInCorrect                  0                       # Number of incorrect RAS predictions.
system.cpu.branchPred.condIncorrect            140201                       # Number of conditional branches incorrect
system.cpu.branchPred.condPredicted            183487                       # Number of conditional branches predicted
system.cpu.branchPred.indirectHits                  2                       # Number of indirect target hits.
system.cpu.branchPred.indirectLookups          226077                       # Number of indirect predictor lookups.
system.cpu.branchPred.indirectMisses           226075                       # Number of indirect misses.
system.cpu.branchPred.lookups                  696081                       # Number of BP lookups
system.cpu.branchPred.usedRAS                  119178                       # Number of times the RAS was used to get a target.
system.cpu.branchPredindirectMispredicted           43                       # Number of mispredicted indirect branches.
system.cpu.cc_regfile_reads                    737178                       # number of cc regfile reads
system.cpu.cc_regfile_writes                   739110                       # number of cc regfile writes
system.cpu.commit.amos                              0                       # Number of atomic instructions committed
system.cpu.commit.branchMispredicts            140000                       # The number of times a branch was mispredicted
system.cpu.commit.branches                     134687                       # Number of branches committed
system.cpu.commit.bw_lim_events                  8803                       # number cycles where commit BW limit reached
system.cpu.commit.commitNonSpecStalls              31                       # The number of times commit has been forced to stall to communicate backwards
system.cpu.commit.commitSquashedInsts         2603094                       # The number of squashed insts skipped by commit
system.cpu.commit.committedInsts              1000028                       # Number of instructions committed
system.cpu.commit.committedOps                1006971                       # Number of ops (including micro ops) committed
system.cpu.commit.committed_per_cycle::samples      1778432                       # Number of insts commited each cycle
system.cpu.commit.committed_per_cycle::mean     0.566213                       # Number of insts commited each cycle
system.cpu.commit.committed_per_cycle::stdev     1.474663                       # Number of insts commited each cycle
system.cpu.commit.committed_per_cycle::underflows            0      0.00%      0.00% # Number of insts commited each cycle
system.cpu.commit.committed_per_cycle::0      1465945     82.43%     82.43% # Number of insts commited each cycle
system.cpu.commit.committed_per_cycle::1        99652      5.60%     88.03% # Number of insts commited each cycle
system.cpu.commit.committed_per_cycle::2        32732      1.84%     89.87% # Number of insts commited each cycle
system.cpu.commit.committed_per_cycle::3         2824      0.16%     90.03% # Number of insts commited each cycle
system.cpu.commit.committed_per_cycle::4       119908      6.74%     96.77% # Number of insts commited each cycle
system.cpu.commit.committed_per_cycle::5        28140      1.58%     98.36% # Number of insts commited each cycle
system.cpu.commit.committed_per_cycle::6          369      0.02%     98.38% # Number of insts commited each cycle
system.cpu.commit.committed_per_cycle::7        20059      1.13%     99.51% # Number of insts commited each cycle
system.cpu.commit.committed_per_cycle::8         8803      0.49%    100.00% # Number of insts commited each cycle
system.cpu.commit.committed_per_cycle::overflows            0      0.00%    100.00% # Number of insts commited each cycle
system.cpu.commit.committed_per_cycle::min_value            0                       # Number of insts commited each cycle
system.cpu.commit.committed_per_cycle::max_value            8                       # Number of insts commited each cycle
system.cpu.commit.committed_per_cycle::total      1778432                       # Number of insts commited each cycle
system.cpu.commit.fp_insts                          0                       # Number of committed floating point instructions.
system.cpu.commit.function_calls                 2158                       # Number of function calls committed.
system.cpu.commit.int_insts                    879162                       # Number of committed integer instructions.
system.cpu.commit.loads                        161698                       # Number of loads committed
system.cpu.commit.membars                          20                       # Number of memory barriers committed
system.cpu.commit.op_class_0::No_OpClass            5      0.00%      0.00% # Class of committed instruction
system.cpu.commit.op_class_0::IntAlu           625682     62.14%     62.14% # Class of committed instruction
system.cpu.commit.op_class_0::IntMult             633      0.06%     62.20% # Class of committed instruction
system.cpu.commit.op_class_0::IntDiv                2      0.00%     62.20% # Class of committed instruction
system.cpu.commit.op_class_0::FloatAdd              0      0.00%     62.20% # Class of committed instruction
system.cpu.commit.op_class_0::FloatCmp              0      0.00%     62.20% # Class of committed instruction
system.cpu.commit.op_class_0::FloatCvt              0      0.00%     62.20% # Class of committed instruction
system.cpu.commit.op_class_0::FloatMult             0      0.00%     62.20% # Class of committed instruction
system.cpu.commit.op_class_0::FloatMultAcc            0      0.00%     62.20% # Class of committed instruction
system.cpu.commit.op_class_0::FloatDiv              0      0.00%     62.20% # Class of committed instruction
system.cpu.commit.op_class_0::FloatMisc             1      0.00%     62.20% # Class of committed instruction
system.cpu.commit.op_class_0::FloatSqrt             0      0.00%     62.20% # Class of committed instruction
system.cpu.commit.op_class_0::SimdAdd              20      0.00%     62.20% # Class of committed instruction
system.cpu.commit.op_class_0::SimdAddAcc            0      0.00%     62.20% # Class of committed instruction
system.cpu.commit.op_class_0::SimdAlu              19      0.00%     62.20% # Class of committed instruction
system.cpu.commit.op_class_0::SimdCmp              20      0.00%     62.20% # Class of committed instruction
system.cpu.commit.op_class_0::SimdCvt               0      0.00%     62.20% # Class of committed instruction
system.cpu.commit.op_class_0::SimdMisc             23      0.00%     62.21% # Class of committed instruction
system.cpu.commit.op_class_0::SimdMult              0      0.00%     62.21% # Class of committed instruction
system.cpu.commit.op_class_0::SimdMultAcc            0      0.00%     62.21% # Class of committed instruction
system.cpu.commit.op_class_0::SimdShift             0      0.00%     62.21% # Class of committed instruction
system.cpu.commit.op_class_0::SimdShiftAcc            0      0.00%     62.21% # Class of committed instruction
system.cpu.commit.op_class_0::SimdDiv               0      0.00%     62.21% # Class of committed instruction
system.cpu.commit.op_class_0::SimdSqrt              0      0.00%     62.21% # Class of committed instruction
system.cpu.commit.op_class_0::SimdFloatAdd            0      0.00%     62.21% # Class of committed instruction
system.cpu.commit.op_class_0::SimdFloatAlu            0      0.00%     62.21% # Class of committed instruction
system.cpu.commit.op_class_0::SimdFloatCmp            0      0.00%     62.21% # Class of committed instruction
system.cpu.commit.op_class_0::SimdFloatCvt            0      0.00%     62.21% # Class of committed instruction
system.cpu.commit.op_class_0::SimdFloatDiv            0      0.00%     62.21% # Class of committed instruction
system.cpu.commit.op_class_0::SimdFloatMisc            0      0.00%     62.21% # Class of committed instruction
system.cpu.commit.op_class_0::SimdFloatMult            0      0.00%     62.21% # Class of committed instruction
system.cpu.commit.op_class_0::SimdFloatMultAcc            0      0.00%     62.21% # Class of committed instruction
system.cpu.commit.op_class_0::SimdFloatSqrt            0      0.00%     62.21% # Class of committed instruction
system.cpu.commit.op_class_0::SimdReduceAdd            0      0.00%     62.21% # Class of committed instruction
system.cpu.commit.op_class_0::SimdReduceAlu            0      0.00%     62.21% # Class of committed instruction
system.cpu.commit.op_class_0::SimdReduceCmp            0      0.00%     62.21% # Class of committed instruction
system.cpu.commit.op_class_0::SimdFloatReduceAdd            0      0.00%     62.21% # Class of committed instruction
system.cpu.commit.op_class_0::SimdFloatReduceCmp            0      0.00%     62.21% # Class of committed instruction
system.cpu.commit.op_class_0::SimdAes               0      0.00%     62.21% # Class of committed instruction
system.cpu.commit.op_class_0::SimdAesMix            0      0.00%     62.21% # Class of committed instruction
system.cpu.commit.op_class_0::SimdSha1Hash            0      0.00%     62.21% # Class of committed instruction
system.cpu.commit.op_class_0::SimdSha1Hash2            0      0.00%     62.21% # Class of committed instruction
system.cpu.commit.op_class_0::SimdSha256Hash            0      0.00%     62.21% # Class of committed instruction
system.cpu.commit.op_class_0::SimdSha256Hash2            0      0.00%     62.21% # Class of committed instruction
system.cpu.commit.op_class_0::SimdShaSigma2            0      0.00%     62.21% # Class of committed instruction
system.cpu.commit.op_class_0::SimdShaSigma3            0      0.00%     62.21% # Class of committed instruction
system.cpu.commit.op_class_0::SimdPredAlu            0      0.00%     62.21% # Class of committed instruction
system.cpu.commit.op_class_0::MemRead          161698     16.06%     78.26% # Class of committed instruction
system.cpu.commit.op_class_0::MemWrite         218868     21.74%    100.00% # Class of committed instruction
system.cpu.commit.op_class_0::FloatMemRead            0      0.00%    100.00% # Class of committed instruction
system.cpu.commit.op_class_0::FloatMemWrite            0      0.00%    100.00% # Class of committed instruction
system.cpu.commit.op_class_0::IprAccess             0      0.00%    100.00% # Class of committed instruction
system.cpu.commit.op_class_0::InstPrefetch            0      0.00%    100.00% # Class of committed instruction
system.cpu.commit.op_class_0::total           1006971                       # Class of committed instruction
system.cpu.commit.refs                         380566                       # Number of memory references committed
system.cpu.commit.swp_count                         0                       # Number of s/w prefetches committed
system.cpu.commit.vec_insts                       339                       # Number of committed Vector instructions.
system.cpu.committedInsts                     1000002                       # Number of Instructions Simulated
system.cpu.committedOps                       1006945                       # Number of Ops (including micro ops) Simulated
system.cpu.cpi                               2.240085                       # CPI: Cycles Per Instruction
system.cpu.cpi_total                         2.240085                       # CPI: Total CPI of All Threads
system.cpu.decode.BlockedCycles                691158                       # Number of cycles decode is blocked
system.cpu.decode.BranchMispred                   227                       # Number of times decode detected a branch misprediction
system.cpu.decode.BranchResolved               162281                       # Number of times decode resolved a branch
system.cpu.decode.DecodedInsts                5671755                       # Number of instructions handled by decode
system.cpu.decode.IdleCycles                   592686                       # Number of cycles decode is idle
system.cpu.decode.RunCycles                    668280                       # Number of cycles decode is running
system.cpu.decode.SquashCycles                 141523                       # Number of cycles decode is squashing
system.cpu.decode.SquashedInsts                   750                       # Number of squashed instructions handled by decode
system.cpu.decode.UnblockCycles                113814                       # Number of cycles decode is unblocking
system.cpu.dtb.accesses                             0                       # DTB accesses
system.cpu.dtb.align_faults                         0                       # Number of TLB faults due to alignment restrictions
system.cpu.dtb.domain_faults                        0                       # Number of TLB faults due to domain restrictions
system.cpu.dtb.flush_entries                        0                       # Number of entries that have been flushed from TLB
system.cpu.dtb.flush_tlb                            0                       # Number of times complete TLB was flushed
system.cpu.dtb.flush_tlb_asid                       0                       # Number of times TLB was flushed by ASID
system.cpu.dtb.flush_tlb_mva                        0                       # Number of times TLB was flushed by MVA
system.cpu.dtb.flush_tlb_mva_asid                   0                       # Number of times TLB was flushed by MVA & ASID
system.cpu.dtb.hits                                 0                       # DTB hits
system.cpu.dtb.inst_accesses                        0                       # ITB inst accesses
system.cpu.dtb.inst_hits                            0                       # ITB inst hits
system.cpu.dtb.inst_misses                          0                       # ITB inst misses
system.cpu.dtb.misses                               0                       # DTB misses
system.cpu.dtb.perms_faults                         0                       # Number of TLB faults due to permissions restrictions
system.cpu.dtb.prefetch_faults                      0                       # Number of TLB faults due to prefetch
system.cpu.dtb.read_accesses                        0                       # DTB read accesses
system.cpu.dtb.read_hits                            0                       # DTB read hits
system.cpu.dtb.read_misses                          0                       # DTB read misses
system.cpu.dtb.stage2_mmu.stage2_tlb.accesses            0                       # DTB accesses
system.cpu.dtb.stage2_mmu.stage2_tlb.align_faults            0                       # Number of TLB faults due to alignment restrictions
system.cpu.dtb.stage2_mmu.stage2_tlb.domain_faults            0                       # Number of TLB faults due to domain restrictions
system.cpu.dtb.stage2_mmu.stage2_tlb.flush_entries            0                       # Number of entries that have been flushed from TLB
system.cpu.dtb.stage2_mmu.stage2_tlb.flush_tlb            0                       # Number of times complete TLB was flushed
system.cpu.dtb.stage2_mmu.stage2_tlb.flush_tlb_asid            0                       # Number of times TLB was flushed by ASID
system.cpu.dtb.stage2_mmu.stage2_tlb.flush_tlb_mva            0                       # Number of times TLB was flushed by MVA
system.cpu.dtb.stage2_mmu.stage2_tlb.flush_tlb_mva_asid            0                       # Number of times TLB was flushed by MVA & ASID
system.cpu.dtb.stage2_mmu.stage2_tlb.hits            0                       # DTB hits
system.cpu.dtb.stage2_mmu.stage2_tlb.inst_accesses            0                       # ITB inst accesses
system.cpu.dtb.stage2_mmu.stage2_tlb.inst_hits            0                       # ITB inst hits
system.cpu.dtb.stage2_mmu.stage2_tlb.inst_misses            0                       # ITB inst misses
system.cpu.dtb.stage2_mmu.stage2_tlb.misses            0                       # DTB misses
system.cpu.dtb.stage2_mmu.stage2_tlb.perms_faults            0                       # Number of TLB faults due to permissions restrictions
system.cpu.dtb.stage2_mmu.stage2_tlb.prefetch_faults            0                       # Number of TLB faults due to prefetch
system.cpu.dtb.stage2_mmu.stage2_tlb.read_accesses            0                       # DTB read accesses
system.cpu.dtb.stage2_mmu.stage2_tlb.read_hits            0                       # DTB read hits
system.cpu.dtb.stage2_mmu.stage2_tlb.read_misses            0                       # DTB read misses
system.cpu.dtb.stage2_mmu.stage2_tlb.walker.walkRequestOrigin_Requested::Data            0                       # Table walker requests started/completed, data/inst
system.cpu.dtb.stage2_mmu.stage2_tlb.walker.walkRequestOrigin_Requested::Inst            0                       # Table walker requests started/completed, data/inst
system.cpu.dtb.stage2_mmu.stage2_tlb.walker.walkRequestOrigin_Requested::total            0                       # Table walker requests started/completed, data/inst
system.cpu.dtb.stage2_mmu.stage2_tlb.walker.walkRequestOrigin_Completed::Data            0                       # Table walker requests started/completed, data/inst
system.cpu.dtb.stage2_mmu.stage2_tlb.walker.walkRequestOrigin_Completed::Inst            0                       # Table walker requests started/completed, data/inst
system.cpu.dtb.stage2_mmu.stage2_tlb.walker.walkRequestOrigin_Completed::total            0                       # Table walker requests started/completed, data/inst
system.cpu.dtb.stage2_mmu.stage2_tlb.walker.walkRequestOrigin::total            0                       # Table walker requests started/completed, data/inst
system.cpu.dtb.stage2_mmu.stage2_tlb.walker.walks            0                       # Table walker walks requested
system.cpu.dtb.stage2_mmu.stage2_tlb.write_accesses            0                       # DTB write accesses
system.cpu.dtb.stage2_mmu.stage2_tlb.write_hits            0                       # DTB write hits
system.cpu.dtb.stage2_mmu.stage2_tlb.write_misses            0                       # DTB write misses
system.cpu.dtb.walker.walkRequestOrigin_Requested::Data            0                       # Table walker requests started/completed, data/inst
system.cpu.dtb.walker.walkRequestOrigin_Requested::Inst            0                       # Table walker requests started/completed, data/inst
system.cpu.dtb.walker.walkRequestOrigin_Requested::total            0                       # Table walker requests started/completed, data/inst
system.cpu.dtb.walker.walkRequestOrigin_Completed::Data            0                       # Table walker requests started/completed, data/inst
system.cpu.dtb.walker.walkRequestOrigin_Completed::Inst            0                       # Table walker requests started/completed, data/inst
system.cpu.dtb.walker.walkRequestOrigin_Completed::total            0                       # Table walker requests started/completed, data/inst
system.cpu.dtb.walker.walkRequestOrigin::total            0                       # Table walker requests started/completed, data/inst
system.cpu.dtb.walker.walks                         0                       # Table walker walks requested
system.cpu.dtb.write_accesses                       0                       # DTB write accesses
system.cpu.dtb.write_hits                           0                       # DTB write hits
system.cpu.dtb.write_misses                         0                       # DTB write misses
system.cpu.fetch.Branches                      696081                       # Number of branches that fetch encountered
system.cpu.fetch.CacheLines                    604018                       # Number of cache lines fetched
system.cpu.fetch.Cycles                       1314172                       # Number of cycles fetch has run and was not squashing or blocked
system.cpu.fetch.IcacheSquashes                  2846                       # Number of outstanding Icache misses that were squashed
system.cpu.fetch.IcacheWaitRetryStallCycles          106                       # Number of stall cycles due to full MSHR
system.cpu.fetch.Insts                        4049652                       # Number of instructions fetch has processed
system.cpu.fetch.MiscStallCycles                    7                       # Number of cycles fetch has spent waiting on interrupts, or bad addresses, or out of MSHRs
system.cpu.fetch.SquashCycles                  283448                       # Number of cycles fetch has spent squashing
system.cpu.fetch.branchRate                  0.310738                       # Number of branch fetches per cycle
system.cpu.fetch.icacheStallCycles             751452                       # Number of cycles fetch is stalled on an Icache miss
system.cpu.fetch.predictedBranches             285944                       # Number of branches that fetch has predicted taken
system.cpu.fetch.rate                        1.807809                       # Number of inst fetches per cycle
system.cpu.fetch.rateDist::samples            2207461                       # Number of instructions fetched each cycle (Total)
system.cpu.fetch.rateDist::mean              2.655461                       # Number of instructions fetched each cycle (Total)
system.cpu.fetch.rateDist::stdev             3.521881                       # Number of instructions fetched each cycle (Total)
system.cpu.fetch.rateDist::underflows               0      0.00%      0.00% # Number of instructions fetched each cycle (Total)
system.cpu.fetch.rateDist::0                  1284488     58.19%     58.19% # Number of instructions fetched each cycle (Total)
system.cpu.fetch.rateDist::1                   116185      5.26%     63.45% # Number of instructions fetched each cycle (Total)
system.cpu.fetch.rateDist::2                    22344      1.01%     64.46% # Number of instructions fetched each cycle (Total)
system.cpu.fetch.rateDist::3                     5733      0.26%     64.72% # Number of instructions fetched each cycle (Total)
system.cpu.fetch.rateDist::4                    50269      2.28%     67.00% # Number of instructions fetched each cycle (Total)
system.cpu.fetch.rateDist::5                    34100      1.54%     68.55% # Number of instructions fetched each cycle (Total)
system.cpu.fetch.rateDist::6                   116459      5.28%     73.82% # Number of instructions fetched each cycle (Total)
system.cpu.fetch.rateDist::7                     9640      0.44%     74.26% # Number of instructions fetched each cycle (Total)
system.cpu.fetch.rateDist::8                   568243     25.74%    100.00% # Number of instructions fetched each cycle (Total)
system.cpu.fetch.rateDist::overflows                0      0.00%    100.00% # Number of instructions fetched each cycle (Total)
system.cpu.fetch.rateDist::min_value                0                       # Number of instructions fetched each cycle (Total)
system.cpu.fetch.rateDist::max_value                8                       # Number of instructions fetched each cycle (Total)
system.cpu.fetch.rateDist::total              2207461                       # Number of instructions fetched each cycle (Total)
system.cpu.idleCycles                           32628                       # Total number of cycles that the CPU has spent unscheduled due to idling
system.cpu.iew.branchMispredicts               143217                       # Number of branch mispredicts detected at execute
system.cpu.iew.exec_branches                   203848                       # Number of branches executed
system.cpu.iew.exec_nop                            46                       # number of nop insts executed
system.cpu.iew.exec_rate                     0.941799                       # Inst execution rate
system.cpu.iew.exec_refs                       850216                       # number of memory reference insts executed
system.cpu.iew.exec_stores                     668828                       # Number of stores executed
system.cpu.iew.exec_swp                             0                       # number of swp insts executed
system.cpu.iew.iewBlockCycles                  288663                       # Number of cycles IEW is blocking
system.cpu.iew.iewDispLoadInsts                225648                       # Number of dispatched load instructions
system.cpu.iew.iewDispNonSpecInsts                 52                       # Number of dispatched non-speculative instructions
system.cpu.iew.iewDispSquashedInsts               805                       # Number of squashed instructions skipped by dispatch
system.cpu.iew.iewDispStoreInsts              1889501                       # Number of dispatched store instructions
system.cpu.iew.iewDispatchedInsts             3532474                       # Number of instructions dispatched to IQ
system.cpu.iew.iewExecLoadInsts                181388                       # Number of load instructions executed
system.cpu.iew.iewExecSquashedInsts            593141                       # Number of squashed instructions skipped in execute
system.cpu.iew.iewExecutedInsts               2109713                       # Number of executed instructions
system.cpu.iew.iewIQFullEvents                     24                       # Number of times the IQ has become full, causing a stall
system.cpu.iew.iewIdleCycles                        0                       # Number of cycles IEW is idle
system.cpu.iew.iewLSQFullEvents                 28180                       # Number of times the LSQ has become full, causing a stall
system.cpu.iew.iewSquashCycles                 141523                       # Number of cycles IEW is squashing
system.cpu.iew.iewUnblockCycles                   786                       # Number of cycles IEW is unblocking
system.cpu.iew.lsq.thread0.blockedLoads             0                       # Number of blocked loads due to partial load-store forwarding
system.cpu.iew.lsq.thread0.cacheBlocked         90099                       # Number of times an access to memory failed due to the cache being blocked
system.cpu.iew.lsq.thread0.forwLoads               14                       # Number of loads that had data forwarded from stores
system.cpu.iew.lsq.thread0.ignoredResponses            2                       # Number of memory responses ignored because the instruction is squashed
system.cpu.iew.lsq.thread0.invAddrLoads             0                       # Number of loads ignored due to an invalid address
system.cpu.iew.lsq.thread0.invAddrSwpfs             0                       # Number of software prefetches ignored due to an invalid address
system.cpu.iew.lsq.thread0.memOrderViolation            6                       # Number of memory ordering violations
system.cpu.iew.lsq.thread0.rescheduledLoads           16                       # Number of loads that were rescheduled
system.cpu.iew.lsq.thread0.squashedLoads        63950                       # Number of loads squashed
system.cpu.iew.lsq.thread0.squashedStores      1670633                       # Number of stores squashed
system.cpu.iew.memOrderViolationEvents              6                       # Number of memory order violations
system.cpu.iew.predictedNotTakenIncorrect       143199                       # Number of branches that were predicted not taken incorrectly
system.cpu.iew.predictedTakenIncorrect             18                       # Number of branches that were predicted taken incorrectly
system.cpu.iew.wb_consumers                   2860991                       # num instructions consuming a value
system.cpu.iew.wb_count                       2019563                       # cumulative count of insts written-back
system.cpu.iew.wb_fanout                     0.382781                       # average fanout of values written-back
system.cpu.iew.wb_producers                   1095133                       # num instructions producing a value
system.cpu.iew.wb_rate                       0.901555                       # insts written-back per cycle
system.cpu.iew.wb_sent                        2093252                       # cumulative count of insts sent to commit
system.cpu.int_regfile_reads                  2493831                       # number of integer regfile reads
system.cpu.int_regfile_writes                 1223958                       # number of integer regfile writes
system.cpu.ipc                               0.446412                       # IPC: Instructions Per Cycle
system.cpu.ipc_total                         0.446412                       # IPC: Total IPC of All Threads
system.cpu.iq.FU_type_0::No_OpClass                 6      0.00%      0.00% # Type of FU issued
system.cpu.iq.FU_type_0::IntAlu               1374607     50.86%     50.86% # Type of FU issued
system.cpu.iq.FU_type_0::IntMult                  633      0.02%     50.88% # Type of FU issued
system.cpu.iq.FU_type_0::IntDiv                     3      0.00%     50.88% # Type of FU issued
system.cpu.iq.FU_type_0::FloatAdd                   0      0.00%     50.88% # Type of FU issued
system.cpu.iq.FU_type_0::FloatCmp                   0      0.00%     50.88% # Type of FU issued
system.cpu.iq.FU_type_0::FloatCvt                   0      0.00%     50.88% # Type of FU issued
system.cpu.iq.FU_type_0::FloatMult                  0      0.00%     50.88% # Type of FU issued
system.cpu.iq.FU_type_0::FloatMultAcc               0      0.00%     50.88% # Type of FU issued
system.cpu.iq.FU_type_0::FloatDiv                   0      0.00%     50.88% # Type of FU issued
system.cpu.iq.FU_type_0::FloatMisc                  1      0.00%     50.88% # Type of FU issued
system.cpu.iq.FU_type_0::FloatSqrt                  0      0.00%     50.88% # Type of FU issued
system.cpu.iq.FU_type_0::SimdAdd                   23      0.00%     50.88% # Type of FU issued
system.cpu.iq.FU_type_0::SimdAddAcc                 0      0.00%     50.88% # Type of FU issued
system.cpu.iq.FU_type_0::SimdAlu                   26      0.00%     50.88% # Type of FU issued
system.cpu.iq.FU_type_0::SimdCmp                   24      0.00%     50.88% # Type of FU issued
system.cpu.iq.FU_type_0::SimdCvt                    0      0.00%     50.88% # Type of FU issued
system.cpu.iq.FU_type_0::SimdMisc                  32      0.00%     50.89% # Type of FU issued
system.cpu.iq.FU_type_0::SimdMult                   0      0.00%     50.89% # Type of FU issued
system.cpu.iq.FU_type_0::SimdMultAcc                0      0.00%     50.89% # Type of FU issued
system.cpu.iq.FU_type_0::SimdShift                  0      0.00%     50.89% # Type of FU issued
system.cpu.iq.FU_type_0::SimdShiftAcc               0      0.00%     50.89% # Type of FU issued
system.cpu.iq.FU_type_0::SimdDiv                    0      0.00%     50.89% # Type of FU issued
system.cpu.iq.FU_type_0::SimdSqrt                   0      0.00%     50.89% # Type of FU issued
system.cpu.iq.FU_type_0::SimdFloatAdd               0      0.00%     50.89% # Type of FU issued
system.cpu.iq.FU_type_0::SimdFloatAlu               0      0.00%     50.89% # Type of FU issued
system.cpu.iq.FU_type_0::SimdFloatCmp               0      0.00%     50.89% # Type of FU issued
system.cpu.iq.FU_type_0::SimdFloatCvt               0      0.00%     50.89% # Type of FU issued
system.cpu.iq.FU_type_0::SimdFloatDiv               0      0.00%     50.89% # Type of FU issued
system.cpu.iq.FU_type_0::SimdFloatMisc              0      0.00%     50.89% # Type of FU issued
system.cpu.iq.FU_type_0::SimdFloatMult              0      0.00%     50.89% # Type of FU issued
system.cpu.iq.FU_type_0::SimdFloatMultAcc            0      0.00%     50.89% # Type of FU issued
system.cpu.iq.FU_type_0::SimdFloatSqrt              0      0.00%     50.89% # Type of FU issued
system.cpu.iq.FU_type_0::SimdReduceAdd              0      0.00%     50.89% # Type of FU issued
system.cpu.iq.FU_type_0::SimdReduceAlu              0      0.00%     50.89% # Type of FU issued
system.cpu.iq.FU_type_0::SimdReduceCmp              0      0.00%     50.89% # Type of FU issued
system.cpu.iq.FU_type_0::SimdFloatReduceAdd            0      0.00%     50.89% # Type of FU issued
system.cpu.iq.FU_type_0::SimdFloatReduceCmp            0      0.00%     50.89% # Type of FU issued
system.cpu.iq.FU_type_0::SimdAes                    0      0.00%     50.89% # Type of FU issued
system.cpu.iq.FU_type_0::SimdAesMix                 0      0.00%     50.89% # Type of FU issued
system.cpu.iq.FU_type_0::SimdSha1Hash               0      0.00%     50.89% # Type of FU issued
system.cpu.iq.FU_type_0::SimdSha1Hash2              0      0.00%     50.89% # Type of FU issued
system.cpu.iq.FU_type_0::SimdSha256Hash             0      0.00%     50.89% # Type of FU issued
system.cpu.iq.FU_type_0::SimdSha256Hash2            0      0.00%     50.89% # Type of FU issued
system.cpu.iq.FU_type_0::SimdShaSigma2              0      0.00%     50.89% # Type of FU issued
system.cpu.iq.FU_type_0::SimdShaSigma3              0      0.00%     50.89% # Type of FU issued
system.cpu.iq.FU_type_0::SimdPredAlu                0      0.00%     50.89% # Type of FU issued
system.cpu.iq.FU_type_0::MemRead               221163      8.18%     59.07% # Type of FU issued
system.cpu.iq.FU_type_0::MemWrite             1106336     40.93%    100.00% # Type of FU issued
system.cpu.iq.FU_type_0::FloatMemRead               0      0.00%    100.00% # Type of FU issued
system.cpu.iq.FU_type_0::FloatMemWrite              0      0.00%    100.00% # Type of FU issued
system.cpu.iq.FU_type_0::IprAccess                  0      0.00%    100.00% # Type of FU issued
system.cpu.iq.FU_type_0::InstPrefetch               0      0.00%    100.00% # Type of FU issued
system.cpu.iq.FU_type_0::total                2702854                       # Type of FU issued
system.cpu.iq.fp_alu_accesses                       0                       # Number of floating point alu accesses
system.cpu.iq.fp_inst_queue_reads                   0                       # Number of floating instruction queue reads
system.cpu.iq.fp_inst_queue_wakeup_accesses            0                       # Number of floating instruction queue wakeup accesses
system.cpu.iq.fp_inst_queue_writes                  0                       # Number of floating instruction queue writes
system.cpu.iq.fu_busy_cnt                      153312                       # FU busy when requested
system.cpu.iq.fu_busy_rate                   0.056722                       # FU busy rate (busy events/executed inst)
system.cpu.iq.fu_full::No_OpClass                   0      0.00%      0.00% # attempts to use FU when none available
system.cpu.iq.fu_full::IntAlu                   21234     13.85%     13.85% # attempts to use FU when none available
system.cpu.iq.fu_full::IntMult                      0      0.00%     13.85% # attempts to use FU when none available
system.cpu.iq.fu_full::IntDiv                       0      0.00%     13.85% # attempts to use FU when none available
system.cpu.iq.fu_full::FloatAdd                     0      0.00%     13.85% # attempts to use FU when none available
system.cpu.iq.fu_full::FloatCmp                     0      0.00%     13.85% # attempts to use FU when none available
system.cpu.iq.fu_full::FloatCvt                     0      0.00%     13.85% # attempts to use FU when none available
system.cpu.iq.fu_full::FloatMult                    0      0.00%     13.85% # attempts to use FU when none available
system.cpu.iq.fu_full::FloatMultAcc                 0      0.00%     13.85% # attempts to use FU when none available
system.cpu.iq.fu_full::FloatDiv                     0      0.00%     13.85% # attempts to use FU when none available
system.cpu.iq.fu_full::FloatMisc                    0      0.00%     13.85% # attempts to use FU when none available
system.cpu.iq.fu_full::FloatSqrt                    0      0.00%     13.85% # attempts to use FU when none available
system.cpu.iq.fu_full::SimdAdd                      0      0.00%     13.85% # attempts to use FU when none available
system.cpu.iq.fu_full::SimdAddAcc                   0      0.00%     13.85% # attempts to use FU when none available
system.cpu.iq.fu_full::SimdAlu                      2      0.00%     13.85% # attempts to use FU when none available
system.cpu.iq.fu_full::SimdCmp                      1      0.00%     13.85% # attempts to use FU when none available
system.cpu.iq.fu_full::SimdCvt                      0      0.00%     13.85% # attempts to use FU when none available
system.cpu.iq.fu_full::SimdMisc                     0      0.00%     13.85% # attempts to use FU when none available
system.cpu.iq.fu_full::SimdMult                     0      0.00%     13.85% # attempts to use FU when none available
system.cpu.iq.fu_full::SimdMultAcc                  0      0.00%     13.85% # attempts to use FU when none available
system.cpu.iq.fu_full::SimdShift                    0      0.00%     13.85% # attempts to use FU when none available
system.cpu.iq.fu_full::SimdShiftAcc                 0      0.00%     13.85% # attempts to use FU when none available
system.cpu.iq.fu_full::SimdDiv                      0      0.00%     13.85% # attempts to use FU when none available
system.cpu.iq.fu_full::SimdSqrt                     0      0.00%     13.85% # attempts to use FU when none available
system.cpu.iq.fu_full::SimdFloatAdd                 0      0.00%     13.85% # attempts to use FU when none available
system.cpu.iq.fu_full::SimdFloatAlu                 0      0.00%     13.85% # attempts to use FU when none available
system.cpu.iq.fu_full::SimdFloatCmp                 0      0.00%     13.85% # attempts to use FU when none available
system.cpu.iq.fu_full::SimdFloatCvt                 0      0.00%     13.85% # attempts to use FU when none available
system.cpu.iq.fu_full::SimdFloatDiv                 0      0.00%     13.85% # attempts to use FU when none available
system.cpu.iq.fu_full::SimdFloatMisc                0      0.00%     13.85% # attempts to use FU when none available
system.cpu.iq.fu_full::SimdFloatMult                0      0.00%     13.85% # attempts to use FU when none available
system.cpu.iq.fu_full::SimdFloatMultAcc             0      0.00%     13.85% # attempts to use FU when none available
system.cpu.iq.fu_full::SimdFloatSqrt                0      0.00%     13.85% # attempts to use FU when none available
system.cpu.iq.fu_full::SimdReduceAdd                0      0.00%     13.85% # attempts to use FU when none available
system.cpu.iq.fu_full::SimdReduceAlu                0      0.00%     13.85% # attempts to use FU when none available
system.cpu.iq.fu_full::SimdReduceCmp                0      0.00%     13.85% # attempts to use FU when none available
system.cpu.iq.fu_full::SimdFloatReduceAdd            0      0.00%     13.85% # attempts to use FU when none available
system.cpu.iq.fu_full::SimdFloatReduceCmp            0      0.00%     13.85% # attempts to use FU when none available
system.cpu.iq.fu_full::SimdAes                      0      0.00%     13.85% # attempts to use FU when none available
system.cpu.iq.fu_full::SimdAesMix                   0      0.00%     13.85% # attempts to use FU when none available
system.cpu.iq.fu_full::SimdSha1Hash                 0      0.00%     13.85% # attempts to use FU when none available
system.cpu.iq.fu_full::SimdSha1Hash2                0      0.00%     13.85% # attempts to use FU when none available
system.cpu.iq.fu_full::SimdSha256Hash               0      0.00%     13.85% # attempts to use FU when none available
system.cpu.iq.fu_full::SimdSha256Hash2              0      0.00%     13.85% # attempts to use FU when none available
system.cpu.iq.fu_full::SimdShaSigma2                0      0.00%     13.85% # attempts to use FU when none available
system.cpu.iq.fu_full::SimdShaSigma3                0      0.00%     13.85% # attempts to use FU when none available
system.cpu.iq.fu_full::SimdPredAlu                  0      0.00%     13.85% # attempts to use FU when none available
system.cpu.iq.fu_full::MemRead                  22432     14.63%     28.48% # attempts to use FU when none available
system.cpu.iq.fu_full::MemWrite                109643     71.52%    100.00% # attempts to use FU when none available
system.cpu.iq.fu_full::FloatMemRead                 0      0.00%    100.00% # attempts to use FU when none available
system.cpu.iq.fu_full::FloatMemWrite                0      0.00%    100.00% # attempts to use FU when none available
system.cpu.iq.fu_full::IprAccess                    0      0.00%    100.00% # attempts to use FU when none available
system.cpu.iq.fu_full::InstPrefetch                 0      0.00%    100.00% # attempts to use FU when none available
system.cpu.iq.int_alu_accesses                1878516                       # Number of integer alu accesses
system.cpu.iq.int_inst_queue_reads            5924308                       # Number of integer instruction queue reads
system.cpu.iq.int_inst_queue_wakeup_accesses      1641373                       # Number of integer instruction queue wakeup accesses
system.cpu.iq.int_inst_queue_writes           2763158                       # Number of integer instruction queue writes
system.cpu.iq.iqInstsAdded                    3532376                       # Number of instructions added to the IQ (excludes non-spec)
system.cpu.iq.iqInstsIssued                   2702854                       # Number of instructions issued
system.cpu.iq.iqNonSpecInstsAdded                  52                       # Number of non-speculative instructions added to the IQ
system.cpu.iq.iqSquashedInstsExamined         2525483                       # Number of squashed instructions iterated over during squash; mainly for profiling
system.cpu.iq.iqSquashedInstsIssued            436725                       # Number of squashed instructions issued
system.cpu.iq.iqSquashedNonSpecRemoved             21                       # Number of squashed non-spec instructions that were removed
system.cpu.iq.iqSquashedOperandsExamined      5350968                       # Number of squashed operands that are examined and possibly removed from graph
system.cpu.iq.issued_per_cycle::samples       2207461                       # Number of insts issued each cycle
system.cpu.iq.issued_per_cycle::mean         1.224418                       # Number of insts issued each cycle
system.cpu.iq.issued_per_cycle::stdev        1.978975                       # Number of insts issued each cycle
system.cpu.iq.issued_per_cycle::underflows            0      0.00%      0.00% # Number of insts issued each cycle
system.cpu.iq.issued_per_cycle::0             1454524     65.89%     65.89% # Number of insts issued each cycle
system.cpu.iq.issued_per_cycle::1               90693      4.11%     70.00% # Number of insts issued each cycle
system.cpu.iq.issued_per_cycle::2              161402      7.31%     77.31% # Number of insts issued each cycle
system.cpu.iq.issued_per_cycle::3              146698      6.65%     83.96% # Number of insts issued each cycle
system.cpu.iq.issued_per_cycle::4               76479      3.46%     87.42% # Number of insts issued each cycle
system.cpu.iq.issued_per_cycle::5              134118      6.08%     93.50% # Number of insts issued each cycle
system.cpu.iq.issued_per_cycle::6              134334      6.09%     99.58% # Number of insts issued each cycle
system.cpu.iq.issued_per_cycle::7                6951      0.31%     99.90% # Number of insts issued each cycle
system.cpu.iq.issued_per_cycle::8                2262      0.10%    100.00% # Number of insts issued each cycle
system.cpu.iq.issued_per_cycle::overflows            0      0.00%    100.00% # Number of insts issued each cycle
system.cpu.iq.issued_per_cycle::min_value            0                       # Number of insts issued each cycle
system.cpu.iq.issued_per_cycle::max_value            8                       # Number of insts issued each cycle
system.cpu.iq.issued_per_cycle::total         2207461                       # Number of insts issued each cycle
system.cpu.iq.rate                           1.206583                       # Inst issue rate
system.cpu.iq.vec_alu_accesses                 977644                       # Number of vector alu accesses
system.cpu.iq.vec_inst_queue_reads            2278898                       # Number of vector instruction queue reads
system.cpu.iq.vec_inst_queue_wakeup_accesses       378190                       # Number of vector instruction queue wakeup accesses
system.cpu.iq.vec_inst_queue_writes           3294759                       # Number of vector instruction queue writes
system.cpu.itb.accesses                             0                       # DTB accesses
system.cpu.itb.align_faults                         0                       # Number of TLB faults due to alignment restrictions
system.cpu.itb.domain_faults                        0                       # Number of TLB faults due to domain restrictions
system.cpu.itb.flush_entries                        0                       # Number of entries that have been flushed from TLB
system.cpu.itb.flush_tlb                            0                       # Number of times complete TLB was flushed
system.cpu.itb.flush_tlb_asid                       0                       # Number of times TLB was flushed by ASID
system.cpu.itb.flush_tlb_mva                        0                       # Number of times TLB was flushed by MVA
system.cpu.itb.flush_tlb_mva_asid                   0                       # Number of times TLB was flushed by MVA & ASID
system.cpu.itb.hits                                 0                       # DTB hits
system.cpu.itb.inst_accesses                        0                       # ITB inst accesses
system.cpu.itb.inst_hits                            0                       # ITB inst hits
system.cpu.itb.inst_misses                          0                       # ITB inst misses
system.cpu.itb.misses                               0                       # DTB misses
system.cpu.itb.perms_faults                         0                       # Number of TLB faults due to permissions restrictions
system.cpu.itb.prefetch_faults                      0                       # Number of TLB faults due to prefetch
system.cpu.itb.read_accesses                        0                       # DTB read accesses
system.cpu.itb.read_hits                            0                       # DTB read hits
system.cpu.itb.read_misses                          0                       # DTB read misses
system.cpu.itb.stage2_mmu.stage2_tlb.accesses            0                       # DTB accesses
system.cpu.itb.stage2_mmu.stage2_tlb.align_faults            0                       # Number of TLB faults due to alignment restrictions
system.cpu.itb.stage2_mmu.stage2_tlb.domain_faults            0                       # Number of TLB faults due to domain restrictions
system.cpu.itb.stage2_mmu.stage2_tlb.flush_entries            0                       # Number of entries that have been flushed from TLB
system.cpu.itb.stage2_mmu.stage2_tlb.flush_tlb            0                       # Number of times complete TLB was flushed
system.cpu.itb.stage2_mmu.stage2_tlb.flush_tlb_asid            0                       # Number of times TLB was flushed by ASID
system.cpu.itb.stage2_mmu.stage2_tlb.flush_tlb_mva            0                       # Number of times TLB was flushed by MVA
system.cpu.itb.stage2_mmu.stage2_tlb.flush_tlb_mva_asid            0                       # Number of times TLB was flushed by MVA & ASID
system.cpu.itb.stage2_mmu.stage2_tlb.hits            0                       # DTB hits
system.cpu.itb.stage2_mmu.stage2_tlb.inst_accesses            0                       # ITB inst accesses
system.cpu.itb.stage2_mmu.stage2_tlb.inst_hits            0                       # ITB inst hits
system.cpu.itb.stage2_mmu.stage2_tlb.inst_misses            0                       # ITB inst misses
system.cpu.itb.stage2_mmu.stage2_tlb.misses            0                       # DTB misses
system.cpu.itb.stage2_mmu.stage2_tlb.perms_faults            0                       # Number of TLB faults due to permissions restrictions
system.cpu.itb.stage2_mmu.stage2_tlb.prefetch_faults            0                       # Number of TLB faults due to prefetch
system.cpu.itb.stage2_mmu.stage2_tlb.read_accesses            0                       # DTB read accesses
system.cpu.itb.stage2_mmu.stage2_tlb.read_hits            0                       # DTB read hits
system.cpu.itb.stage2_mmu.stage2_tlb.read_misses            0                       # DTB read misses
system.cpu.itb.stage2_mmu.stage2_tlb.walker.walkRequestOrigin_Requested::Data            0                       # Table walker requests started/completed, data/inst
system.cpu.itb.stage2_mmu.stage2_tlb.walker.walkRequestOrigin_Requested::Inst            0                       # Table walker requests started/completed, data/inst
system.cpu.itb.stage2_mmu.stage2_tlb.walker.walkRequestOrigin_Requested::total            0                       # Table walker requests started/completed, data/inst
system.cpu.itb.stage2_mmu.stage2_tlb.walker.walkRequestOrigin_Completed::Data            0                       # Table walker requests started/completed, data/inst
system.cpu.itb.stage2_mmu.stage2_tlb.walker.walkRequestOrigin_Completed::Inst            0                       # Table walker requests started/completed, data/inst
system.cpu.itb.stage2_mmu.stage2_tlb.walker.walkRequestOrigin_Completed::total            0                       # Table walker requests started/completed, data/inst
system.cpu.itb.stage2_mmu.stage2_tlb.walker.walkRequestOrigin::total            0                       # Table walker requests started/completed, data/inst
system.cpu.itb.stage2_mmu.stage2_tlb.walker.walks            0                       # Table walker walks requested
system.cpu.itb.stage2_mmu.stage2_tlb.write_accesses            0                       # DTB write accesses
system.cpu.itb.stage2_mmu.stage2_tlb.write_hits            0                       # DTB write hits
system.cpu.itb.stage2_mmu.stage2_tlb.write_misses            0                       # DTB write misses
system.cpu.itb.walker.walkRequestOrigin_Requested::Data            0                       # Table walker requests started/completed, data/inst
system.cpu.itb.walker.walkRequestOrigin_Requested::Inst            0                       # Table walker requests started/completed, data/inst
system.cpu.itb.walker.walkRequestOrigin_Requested::total            0                       # Table walker requests started/completed, data/inst
system.cpu.itb.walker.walkRequestOrigin_Completed::Data            0                       # Table walker requests started/completed, data/inst
system.cpu.itb.walker.walkRequestOrigin_Completed::Inst            0                       # Table walker requests started/completed, data/inst
system.cpu.itb.walker.walkRequestOrigin_Completed::total            0                       # Table walker requests started/completed, data/inst
system.cpu.itb.walker.walkRequestOrigin::total            0                       # Table walker requests started/completed, data/inst
system.cpu.itb.walker.walks                         0                       # Table walker walks requested
system.cpu.itb.write_accesses                       0                       # DTB write accesses
system.cpu.itb.write_hits                           0                       # DTB write hits
system.cpu.itb.write_misses                         0                       # DTB write misses
system.cpu.memDep0.conflictingLoads              1586                       # Number of conflicting loads.
system.cpu.memDep0.conflictingStores                2                       # Number of conflicting stores.
system.cpu.memDep0.insertedLoads               225648                       # Number of loads inserted to the mem dependence unit.
system.cpu.memDep0.insertedStores             1889501                       # Number of stores inserted to the mem dependence unit.
system.cpu.misc_regfile_reads                 3442596                       # number of misc regfile reads
system.cpu.misc_regfile_writes                     81                       # number of misc regfile writes
system.cpu.numCycles                          2240089                       # number of cpu cycles simulated
system.cpu.numWorkItemsCompleted                    0                       # number of work items this cpu completed
system.cpu.numWorkItemsStarted                      0                       # number of work items this cpu started
system.cpu.rename.BlockCycles                  622960                       # Number of cycles rename is blocking
system.cpu.rename.CommittedMaps               1270067                       # Number of HB maps that are committed
system.cpu.rename.IQFullEvents                    251                       # Number of times rename has blocked due to IQ full
system.cpu.rename.IdleCycles                   727123                       # Number of cycles rename is idle
system.cpu.rename.LQFullEvents                    169                       # Number of times rename has blocked due to LQ full
system.cpu.rename.ROBFullEvents                  4908                       # Number of times rename has blocked due to ROB full
system.cpu.rename.RenameLookups              11727267                       # Number of register rename lookups that rename has made
system.cpu.rename.RenamedInsts                4717832                       # Number of instructions processed by rename
system.cpu.rename.RenamedOperands             3381278                       # Number of destination operands rename has renamed
system.cpu.rename.RunCycles                    645452                       # Number of cycles rename is running
system.cpu.rename.SQFullEvents                  68225                       # Number of times rename has blocked due to SQ full
system.cpu.rename.SquashCycles                 141523                       # Number of cycles rename is squashing
system.cpu.rename.UnblockCycles                 65966                       # Number of cycles rename is unblocking
system.cpu.rename.UndoneMaps                  2111206                       # Number of HB maps that are undone due to squashing
system.cpu.rename.int_rename_lookups          5155730                       # Number of integer rename lookups
system.cpu.rename.serializeStallCycles           4437                       # count of cycles rename stalled for serializing inst
system.cpu.rename.serializingInsts                119                       # count of serializing insts renamed
system.cpu.rename.skidInsts                     74868                       # count of insts added to the skid buffer
system.cpu.rename.tempSerializingInsts             54                       # count of temporary serializing insts renamed
system.cpu.rename.vec_rename_lookups          1721651                       # Number of vector rename lookups
system.cpu.rob.rob_reads                      5359986                       # The number of ROB reads
system.cpu.rob.rob_writes                     7649226                       # The number of ROB writes
system.cpu.timesIdled                             324                       # Number of times that the entire CPU went into an idle state and unscheduled itself
system.cpu.vec_regfile_reads                   435405                       # number of vector regfile reads
system.cpu.vec_regfile_writes                     113                       # number of vector regfile writes
system.cpu.workload.numSyscalls                    10                       # Number of system calls
system.membus.snoop_filter.hit_multi_requests            0                       # Number of requests hitting in the snoop filter with multiple (>1) holders of the requested data.
system.membus.snoop_filter.hit_multi_snoops            0                       # Number of snoops hitting in the snoop filter with multiple (>1) holders of the requested data.
system.membus.snoop_filter.hit_single_requests        65170                       # Number of requests hitting in the snoop filter with a single holder of the requested data.
system.membus.snoop_filter.hit_single_snoops            0                       # Number of snoops hitting in the snoop filter with a single holder of the requested data.
system.membus.snoop_filter.tot_requests        164369                       # Total number of requests made to the snoop filter.
system.membus.snoop_filter.tot_snoops               0                       # Total number of snoops made to the snoop filter.
system.tol2bus.snoop_filter.hit_multi_requests            1                       # Number of requests hitting in the snoop filter with multiple (>1) holders of the requested data.
system.tol2bus.snoop_filter.hit_multi_snoops            0                       # Number of snoops hitting in the snoop filter with multiple (>1) holders of the requested data.
system.tol2bus.snoop_filter.hit_single_requests        97995                       # Number of requests hitting in the snoop filter with a single holder of the requested data.
system.tol2bus.snoop_filter.hit_single_snoops          248                       # Number of snoops hitting in the snoop filter with a single holder of the requested data.
system.tol2bus.snoop_filter.tot_requests       197266                       # Total number of requests made to the snoop filter.
system.tol2bus.snoop_filter.tot_snoops            248                       # Total number of snoops made to the snoop filter.
system.membus.trans_dist::ReadResp                548                       # Transaction distribution
system.membus.trans_dist::WritebackDirty        64875                       # Transaction distribution
system.membus.trans_dist::CleanEvict              279                       # Transaction distribution
system.membus.trans_dist::ReadExReq              2716                       # Transaction distribution
system.membus.trans_dist::ReadExResp             2716                       # Transaction distribution
system.membus.trans_dist::ReadSharedReq           548                       # Transaction distribution
system.membus.trans_dist::InvalidateReq         95935                       # Transaction distribution
system.membus.pkt_count_system.l2.mem_side::system.mem_ctrls.port       167617                       # Packet count per connected master and slave (bytes)
system.membus.pkt_count::total                 167617                       # Packet count per connected master and slave (bytes)
system.membus.pkt_size_system.l2.mem_side::system.mem_ctrls.port      4360896                       # Cumulative packet size per connected master and slave (bytes)
system.membus.pkt_size::total                 4360896                       # Cumulative packet size per connected master and slave (bytes)
system.membus.snoops                                0                       # Total snoops (count)
system.membus.snoopTraffic                          0                       # Total snoop traffic (bytes)
system.membus.snoop_fanout::samples             99199                       # Request fanout histogram
system.membus.snoop_fanout::mean                    0                       # Request fanout histogram
system.membus.snoop_fanout::stdev                   0                       # Request fanout histogram
system.membus.snoop_fanout::underflows              0      0.00%      0.00% # Request fanout histogram
system.membus.snoop_fanout::0                   99199    100.00%    100.00% # Request fanout histogram
system.membus.snoop_fanout::1                       0      0.00%    100.00% # Request fanout histogram
system.membus.snoop_fanout::overflows               0      0.00%    100.00% # Request fanout histogram
system.membus.snoop_fanout::min_value               0                       # Request fanout histogram
system.membus.snoop_fanout::max_value               0                       # Request fanout histogram
system.membus.snoop_fanout::total               99199                       # Request fanout histogram
system.membus.reqLayer0.occupancy           439985750                       # Layer occupancy (ticks)
system.membus.reqLayer0.utilization              39.3                       # Layer utilization (%)
system.membus.respLayer1.occupancy           17257500                       # Layer occupancy (ticks)
system.membus.respLayer1.utilization              1.5                       # Layer utilization (%)
system.membus.power_state.pwrStateResidencyTicks::UNDEFINED   1120044000                       # Cumulative time (in ticks) in various power states
system.tol2bus.trans_dist::ReadResp               600                       # Transaction distribution
system.tol2bus.trans_dist::WritebackDirty       162554                       # Transaction distribution
system.tol2bus.trans_dist::WritebackClean          215                       # Transaction distribution
system.tol2bus.trans_dist::CleanEvict             630                       # Transaction distribution
system.tol2bus.trans_dist::ReadExReq             2734                       # Transaction distribution
system.tol2bus.trans_dist::ReadExResp            2734                       # Transaction distribution
system.tol2bus.trans_dist::ReadCleanReq           463                       # Transaction distribution
system.tol2bus.trans_dist::ReadSharedReq          137                       # Transaction distribution
system.tol2bus.trans_dist::InvalidateReq        95937                       # Transaction distribution
system.tol2bus.trans_dist::InvalidateResp        95933                       # Transaction distribution
system.tol2bus.pkt_count_system.cpu.icache.mem_side::system.l2.cpu_side         1141                       # Packet count per connected master and slave (bytes)
system.tol2bus.pkt_count_system.cpu.dcache.mem_side::system.l2.cpu_side       295392                       # Packet count per connected master and slave (bytes)
system.tol2bus.pkt_count::total                296533                       # Packet count per connected master and slave (bytes)
system.tol2bus.pkt_size_system.cpu.icache.mem_side::system.l2.cpu_side        43392                       # Cumulative packet size per connected master and slave (bytes)
system.tol2bus.pkt_size_system.cpu.dcache.mem_side::system.l2.cpu_side      6435072                       # Cumulative packet size per connected master and slave (bytes)
system.tol2bus.pkt_size::total                6478464                       # Cumulative packet size per connected master and slave (bytes)
system.tol2bus.snoops                           65404                       # Total snoops (count)
system.tol2bus.snoopTraffic                   4152128                       # Total snoop traffic (bytes)
system.tol2bus.snoop_fanout::samples           164675                       # Request fanout histogram
system.tol2bus.snoop_fanout::mean            0.001512                       # Request fanout histogram
system.tol2bus.snoop_fanout::stdev           0.038856                       # Request fanout histogram
system.tol2bus.snoop_fanout::underflows             0      0.00%      0.00% # Request fanout histogram
system.tol2bus.snoop_fanout::0                 164426     99.85%     99.85% # Request fanout histogram
system.tol2bus.snoop_fanout::1                    249      0.15%    100.00% # Request fanout histogram
system.tol2bus.snoop_fanout::2                      0      0.00%    100.00% # Request fanout histogram
system.tol2bus.snoop_fanout::overflows              0      0.00%    100.00% # Request fanout histogram
system.tol2bus.snoop_fanout::min_value              0                       # Request fanout histogram
system.tol2bus.snoop_fanout::max_value              1                       # Request fanout histogram
system.tol2bus.snoop_fanout::total             164675                       # Request fanout histogram
system.tol2bus.reqLayer0.occupancy          196525000                       # Layer occupancy (ticks)
system.tol2bus.reqLayer0.utilization             17.5                       # Layer utilization (%)
system.tol2bus.respLayer1.occupancy          52273000                       # Layer occupancy (ticks)
system.tol2bus.respLayer1.utilization             4.7                       # Layer utilization (%)
system.tol2bus.respLayer0.occupancy            694999                       # Layer occupancy (ticks)
system.tol2bus.respLayer0.utilization             0.1                       # Layer utilization (%)
system.tol2bus.power_state.pwrStateResidencyTicks::UNDEFINED   1120044000                       # Cumulative time (in ticks) in various power states
system.voltage_domain.voltage                       1                       # Voltage in Volts
system.clk_domain.clock                          1000                       # Clock period in ticks
system.l2.demand_hits::.cpu.inst                   36                       # number of demand (read+write) hits
system.l2.demand_hits::.cpu.data                   34                       # number of demand (read+write) hits
system.l2.demand_hits::total                       70                       # number of demand (read+write) hits
system.l2.overall_hits::.cpu.inst                  36                       # number of overall hits
system.l2.overall_hits::.cpu.data                  34                       # number of overall hits
system.l2.overall_hits::total                      70                       # number of overall hits
system.l2.demand_misses::.cpu.inst                427                       # number of demand (read+write) misses
system.l2.demand_misses::.cpu.data               2837                       # number of demand (read+write) misses
system.l2.demand_misses::total                   3264                       # number of demand (read+write) misses
system.l2.overall_misses::.cpu.inst               427                       # number of overall misses
system.l2.overall_misses::.cpu.data              2837                       # number of overall misses
system.l2.overall_misses::total                  3264                       # number of overall misses
system.l2.demand_miss_latency::.cpu.inst     33556500                       # number of demand (read+write) miss cycles
system.l2.demand_miss_latency::.cpu.data    219766000                       # number of demand (read+write) miss cycles
system.l2.demand_miss_latency::total        253322500                       # number of demand (read+write) miss cycles
system.l2.overall_miss_latency::.cpu.inst     33556500                       # number of overall miss cycles
system.l2.overall_miss_latency::.cpu.data    219766000                       # number of overall miss cycles
system.l2.overall_miss_latency::total       253322500                       # number of overall miss cycles
system.l2.demand_accesses::.cpu.inst              463                       # number of demand (read+write) accesses
system.l2.demand_accesses::.cpu.data             2871                       # number of demand (read+write) accesses
system.l2.demand_accesses::total                 3334                       # number of demand (read+write) accesses
system.l2.overall_accesses::.cpu.inst             463                       # number of overall (read+write) accesses
system.l2.overall_accesses::.cpu.data            2871                       # number of overall (read+write) accesses
system.l2.overall_accesses::total                3334                       # number of overall (read+write) accesses
system.l2.demand_miss_rate::.cpu.inst        0.922246                       # miss rate for demand accesses
system.l2.demand_miss_rate::.cpu.data        0.988157                       # miss rate for demand accesses
system.l2.demand_miss_rate::total            0.979004                       # miss rate for demand accesses
system.l2.overall_miss_rate::.cpu.inst       0.922246                       # miss rate for overall accesses
system.l2.overall_miss_rate::.cpu.data       0.988157                       # miss rate for overall accesses
system.l2.overall_miss_rate::total           0.979004                       # miss rate for overall accesses
system.l2.demand_avg_miss_latency::.cpu.inst 78586.651054                       # average overall miss latency
system.l2.demand_avg_miss_latency::.cpu.data 77464.222771                       # average overall miss latency
system.l2.demand_avg_miss_latency::total 77611.060049                       # average overall miss latency
system.l2.overall_avg_miss_latency::.cpu.inst 78586.651054                       # average overall miss latency
system.l2.overall_avg_miss_latency::.cpu.data 77464.222771                       # average overall miss latency
system.l2.overall_avg_miss_latency::total 77611.060049                       # average overall miss latency
system.l2.blocked_cycles::no_mshrs                  0                       # number of cycles access was blocked
system.l2.blocked_cycles::no_targets                0                       # number of cycles access was blocked
system.l2.blocked::no_mshrs                         0                       # number of cycles access was blocked
system.l2.blocked::no_targets                       0                       # number of cycles access was blocked
system.l2.avg_blocked_cycles::no_mshrs            nan                       # average number of cycles each access was blocked
system.l2.avg_blocked_cycles::no_targets          nan                       # average number of cycles each access was blocked
system.l2.writebacks::.writebacks               64877                       # number of writebacks
system.l2.writebacks::total                     64877                       # number of writebacks
system.l2.demand_mshr_misses::.cpu.inst           427                       # number of demand (read+write) MSHR misses
system.l2.demand_mshr_misses::.cpu.data          2837                       # number of demand (read+write) MSHR misses
system.l2.demand_mshr_misses::total              3264                       # number of demand (read+write) MSHR misses
system.l2.overall_mshr_misses::.cpu.inst          427                       # number of overall MSHR misses
system.l2.overall_mshr_misses::.cpu.data         2837                       # number of overall MSHR misses
system.l2.overall_mshr_misses::total             3264                       # number of overall MSHR misses
system.l2.demand_mshr_miss_latency::.cpu.inst     29286500                       # number of demand (read+write) MSHR miss cycles
system.l2.demand_mshr_miss_latency::.cpu.data    191396000                       # number of demand (read+write) MSHR miss cycles
system.l2.demand_mshr_miss_latency::total    220682500                       # number of demand (read+write) MSHR miss cycles
system.l2.overall_mshr_miss_latency::.cpu.inst     29286500                       # number of overall MSHR miss cycles
system.l2.overall_mshr_miss_latency::.cpu.data    191396000                       # number of overall MSHR miss cycles
system.l2.overall_mshr_miss_latency::total    220682500                       # number of overall MSHR miss cycles
system.l2.demand_mshr_miss_rate::.cpu.inst     0.922246                       # mshr miss rate for demand accesses
system.l2.demand_mshr_miss_rate::.cpu.data     0.988157                       # mshr miss rate for demand accesses
system.l2.demand_mshr_miss_rate::total       0.979004                       # mshr miss rate for demand accesses
system.l2.overall_mshr_miss_rate::.cpu.inst     0.922246                       # mshr miss rate for overall accesses
system.l2.overall_mshr_miss_rate::.cpu.data     0.988157                       # mshr miss rate for overall accesses
system.l2.overall_mshr_miss_rate::total      0.979004                       # mshr miss rate for overall accesses
system.l2.demand_avg_mshr_miss_latency::.cpu.inst 68586.651054                       # average overall mshr miss latency
system.l2.demand_avg_mshr_miss_latency::.cpu.data 67464.222771                       # average overall mshr miss latency
system.l2.demand_avg_mshr_miss_latency::total 67611.060049                       # average overall mshr miss latency
system.l2.overall_avg_mshr_miss_latency::.cpu.inst 68586.651054                       # average overall mshr miss latency
system.l2.overall_avg_mshr_miss_latency::.cpu.data 67464.222771                       # average overall mshr miss latency
system.l2.overall_avg_mshr_miss_latency::total 67611.060049                       # average overall mshr miss latency
system.l2.replacements                          65404                       # number of replacements
system.l2.WritebackDirty_hits::.writebacks        97677                       # number of WritebackDirty hits
system.l2.WritebackDirty_hits::total            97677                       # number of WritebackDirty hits
system.l2.WritebackDirty_accesses::.writebacks        97677                       # number of WritebackDirty accesses(hits+misses)
system.l2.WritebackDirty_accesses::total        97677                       # number of WritebackDirty accesses(hits+misses)
system.l2.WritebackClean_hits::.writebacks          215                       # number of WritebackClean hits
system.l2.WritebackClean_hits::total              215                       # number of WritebackClean hits
system.l2.WritebackClean_accesses::.writebacks          215                       # number of WritebackClean accesses(hits+misses)
system.l2.WritebackClean_accesses::total          215                       # number of WritebackClean accesses(hits+misses)
system.l2.ReadExReq_hits::.cpu.data                18                       # number of ReadExReq hits
system.l2.ReadExReq_hits::total                    18                       # number of ReadExReq hits
system.l2.ReadExReq_misses::.cpu.data            2716                       # number of ReadExReq misses
system.l2.ReadExReq_misses::total                2716                       # number of ReadExReq misses
system.l2.ReadExReq_miss_latency::.cpu.data    209716000                       # number of ReadExReq miss cycles
system.l2.ReadExReq_miss_latency::total     209716000                       # number of ReadExReq miss cycles
system.l2.ReadExReq_accesses::.cpu.data          2734                       # number of ReadExReq accesses(hits+misses)
system.l2.ReadExReq_accesses::total              2734                       # number of ReadExReq accesses(hits+misses)
system.l2.ReadExReq_miss_rate::.cpu.data     0.993416                       # miss rate for ReadExReq accesses
system.l2.ReadExReq_miss_rate::total         0.993416                       # miss rate for ReadExReq accesses
system.l2.ReadExReq_avg_miss_latency::.cpu.data 77215.022091                       # average ReadExReq miss latency
system.l2.ReadExReq_avg_miss_latency::total 77215.022091                       # average ReadExReq miss latency
system.l2.ReadExReq_mshr_misses::.cpu.data         2716                       # number of ReadExReq MSHR misses
system.l2.ReadExReq_mshr_misses::total           2716                       # number of ReadExReq MSHR misses
system.l2.ReadExReq_mshr_miss_latency::.cpu.data    182556000                       # number of ReadExReq MSHR miss cycles
system.l2.ReadExReq_mshr_miss_latency::total    182556000                       # number of ReadExReq MSHR miss cycles
system.l2.ReadExReq_mshr_miss_rate::.cpu.data     0.993416                       # mshr miss rate for ReadExReq accesses
system.l2.ReadExReq_mshr_miss_rate::total     0.993416                       # mshr miss rate for ReadExReq accesses
system.l2.ReadExReq_avg_mshr_miss_latency::.cpu.data 67215.022091                       # average ReadExReq mshr miss latency
system.l2.ReadExReq_avg_mshr_miss_latency::total 67215.022091                       # average ReadExReq mshr miss latency
system.l2.ReadCleanReq_hits::.cpu.inst             36                       # number of ReadCleanReq hits
system.l2.ReadCleanReq_hits::total                 36                       # number of ReadCleanReq hits
system.l2.ReadCleanReq_misses::.cpu.inst          427                       # number of ReadCleanReq misses
system.l2.ReadCleanReq_misses::total              427                       # number of ReadCleanReq misses
system.l2.ReadCleanReq_miss_latency::.cpu.inst     33556500                       # number of ReadCleanReq miss cycles
system.l2.ReadCleanReq_miss_latency::total     33556500                       # number of ReadCleanReq miss cycles
system.l2.ReadCleanReq_accesses::.cpu.inst          463                       # number of ReadCleanReq accesses(hits+misses)
system.l2.ReadCleanReq_accesses::total            463                       # number of ReadCleanReq accesses(hits+misses)
system.l2.ReadCleanReq_miss_rate::.cpu.inst     0.922246                       # miss rate for ReadCleanReq accesses
system.l2.ReadCleanReq_miss_rate::total      0.922246                       # miss rate for ReadCleanReq accesses
system.l2.ReadCleanReq_avg_miss_latency::.cpu.inst 78586.651054                       # average ReadCleanReq miss latency
system.l2.ReadCleanReq_avg_miss_latency::total 78586.651054                       # average ReadCleanReq miss latency
system.l2.ReadCleanReq_mshr_misses::.cpu.inst          427                       # number of ReadCleanReq MSHR misses
system.l2.ReadCleanReq_mshr_misses::total          427                       # number of ReadCleanReq MSHR misses
system.l2.ReadCleanReq_mshr_miss_latency::.cpu.inst     29286500                       # number of ReadCleanReq MSHR miss cycles
system.l2.ReadCleanReq_mshr_miss_latency::total     29286500                       # number of ReadCleanReq MSHR miss cycles
system.l2.ReadCleanReq_mshr_miss_rate::.cpu.inst     0.922246                       # mshr miss rate for ReadCleanReq accesses
[...]
system.cpu.dcache.overall_misses::.cpu.data       117486                       # number of overall misses
system.cpu.dcache.overall_misses::total        117486                       # number of overall misses
system.cpu.dcache.demand_miss_latency::.cpu.data   4294019069                       # number of demand (read+write) miss cycles
system.cpu.dcache.demand_miss_latency::total   4294019069                       # number of demand (read+write) miss cycles
system.cpu.dcache.overall_miss_latency::.cpu.data   4294019069                       # number of overall miss cycles
system.cpu.dcache.overall_miss_latency::total   4294019069                       # number of overall miss cycles
system.cpu.dcache.demand_accesses::.cpu.data       399230                       # number of demand (read+write) accesses
system.cpu.dcache.demand_accesses::total       399230                       # number of demand (read+write) accesses
system.cpu.dcache.overall_accesses::.cpu.data       399238                       # number of overall (read+write) accesses
system.cpu.dcache.overall_accesses::total       399238                       # number of overall (read+write) accesses
system.cpu.dcache.demand_miss_rate::.cpu.data     0.294274                       # miss rate for demand accesses
system.cpu.dcache.demand_miss_rate::total     0.294274                       # miss rate for demand accesses
system.cpu.dcache.overall_miss_rate::.cpu.data     0.294276                       # miss rate for overall accesses
system.cpu.dcache.overall_miss_rate::total     0.294276                       # miss rate for overall accesses
system.cpu.dcache.demand_avg_miss_latency::.cpu.data 36550.131245                       # average overall miss latency
system.cpu.dcache.demand_avg_miss_latency::total 36550.131245                       # average overall miss latency
system.cpu.dcache.overall_avg_miss_latency::.cpu.data 36549.197938                       # average overall miss latency
system.cpu.dcache.overall_avg_miss_latency::total 36549.197938                       # average overall miss latency
system.cpu.dcache.blocked_cycles::no_mshrs      1398422                       # number of cycles access was blocked
system.cpu.dcache.blocked_cycles::no_targets            0                       # number of cycles access was blocked
system.cpu.dcache.blocked::no_mshrs             91650                       # number of cycles access was blocked
system.cpu.dcache.blocked::no_targets               0                       # number of cycles access was blocked
system.cpu.dcache.avg_blocked_cycles::no_mshrs    15.258287                       # average number of cycles each access was blocked
system.cpu.dcache.avg_blocked_cycles::no_targets          nan                       # average number of cycles each access was blocked
system.cpu.dcache.writebacks::.writebacks        97677                       # number of writebacks
system.cpu.dcache.writebacks::total             97677                       # number of writebacks
system.cpu.dcache.demand_mshr_hits::.cpu.data        18679                       # number of demand (read+write) MSHR hits
system.cpu.dcache.demand_mshr_hits::total        18679                       # number of demand (read+write) MSHR hits
system.cpu.dcache.overall_mshr_hits::.cpu.data        18679                       # number of overall MSHR hits
system.cpu.dcache.overall_mshr_hits::total        18679                       # number of overall MSHR hits
system.cpu.dcache.demand_mshr_misses::.cpu.data        98804                       # number of demand (read+write) MSHR misses
system.cpu.dcache.demand_mshr_misses::total        98804                       # number of demand (read+write) MSHR misses
system.cpu.dcache.overall_mshr_misses::.cpu.data        98807                       # number of overall MSHR misses
system.cpu.dcache.overall_mshr_misses::total        98807                       # number of overall MSHR misses
system.cpu.dcache.demand_mshr_miss_latency::.cpu.data   3291734596                       # number of demand (read+write) MSHR miss cycles
system.cpu.dcache.demand_mshr_miss_latency::total   3291734596                       # number of demand (read+write) MSHR miss cycles
system.cpu.dcache.overall_mshr_miss_latency::.cpu.data   3291996096                       # number of overall MSHR miss cycles
system.cpu.dcache.overall_mshr_miss_latency::total   3291996096                       # number of overall MSHR miss cycles
system.cpu.dcache.demand_mshr_miss_rate::.cpu.data     0.247486                       # mshr miss rate for demand accesses
system.cpu.dcache.demand_mshr_miss_rate::total     0.247486                       # mshr miss rate for demand accesses
system.cpu.dcache.overall_mshr_miss_rate::.cpu.data     0.247489                       # mshr miss rate for overall accesses
system.cpu.dcache.overall_mshr_miss_rate::total     0.247489                       # mshr miss rate for overall accesses
system.cpu.dcache.demand_avg_mshr_miss_latency::.cpu.data 33315.802963                       # average overall mshr miss latency
system.cpu.dcache.demand_avg_mshr_miss_latency::total 33315.802963                       # average overall mshr miss latency
system.cpu.dcache.overall_avg_mshr_miss_latency::.cpu.data 33317.437995                       # average overall mshr miss latency
system.cpu.dcache.overall_avg_mshr_miss_latency::total 33317.437995                       # average overall mshr miss latency
system.cpu.dcache.replacements                  97780                       # number of replacements
system.cpu.dcache.ReadReq_hits::.cpu.data       180011                       # number of ReadReq hits
system.cpu.dcache.ReadReq_hits::total          180011                       # number of ReadReq hits
system.cpu.dcache.ReadReq_misses::.cpu.data          386                       # number of ReadReq misses
system.cpu.dcache.ReadReq_misses::total           386                       # number of ReadReq misses
system.cpu.dcache.ReadReq_miss_latency::.cpu.data     25561000                       # number of ReadReq miss cycles
system.cpu.dcache.ReadReq_miss_latency::total     25561000                       # number of ReadReq miss cycles
system.cpu.dcache.ReadReq_accesses::.cpu.data       180397                       # number of ReadReq accesses(hits+misses)
system.cpu.dcache.ReadReq_accesses::total       180397                       # number of ReadReq accesses(hits+misses)
system.cpu.dcache.ReadReq_miss_rate::.cpu.data     0.002140                       # miss rate for ReadReq accesses
system.cpu.dcache.ReadReq_miss_rate::total     0.002140                       # miss rate for ReadReq accesses
system.cpu.dcache.ReadReq_avg_miss_latency::.cpu.data 66220.207254                       # average ReadReq miss latency
system.cpu.dcache.ReadReq_avg_miss_latency::total 66220.207254                       # average ReadReq miss latency
system.cpu.dcache.ReadReq_mshr_hits::.cpu.data          253                       # number of ReadReq MSHR hits
system.cpu.dcache.ReadReq_mshr_hits::total          253                       # number of ReadReq MSHR hits
system.cpu.dcache.ReadReq_mshr_misses::.cpu.data          133                       # number of ReadReq MSHR misses
system.cpu.dcache.ReadReq_mshr_misses::total          133                       # number of ReadReq MSHR misses
system.cpu.dcache.ReadReq_mshr_miss_latency::.cpu.data     10082000                       # number of ReadReq MSHR miss cycles
system.cpu.dcache.ReadReq_mshr_miss_latency::total     10082000                       # number of ReadReq MSHR miss cycles
system.cpu.dcache.ReadReq_mshr_miss_rate::.cpu.data     0.000737                       # mshr miss rate for ReadReq accesses
system.cpu.dcache.ReadReq_mshr_miss_rate::total     0.000737                       # mshr miss rate for ReadReq accesses
system.cpu.dcache.ReadReq_avg_mshr_miss_latency::.cpu.data 75804.511278                       # average ReadReq mshr miss latency
system.cpu.dcache.ReadReq_avg_mshr_miss_latency::total 75804.511278                       # average ReadReq mshr miss latency
system.cpu.dcache.WriteReq_hits::.cpu.data       101736                       # number of WriteReq hits
system.cpu.dcache.WriteReq_hits::total         101736                       # number of WriteReq hits
system.cpu.dcache.WriteReq_misses::.cpu.data        21164                       # number of WriteReq misses
system.cpu.dcache.WriteReq_misses::total        21164                       # number of WriteReq misses
system.cpu.dcache.WriteReq_miss_latency::.cpu.data   1105557960                       # number of WriteReq miss cycles
system.cpu.dcache.WriteReq_miss_latency::total   1105557960                       # number of WriteReq miss cycles
system.cpu.dcache.WriteReq_accesses::.cpu.data       122900                       # number of WriteReq accesses(hits+misses)
system.cpu.dcache.WriteReq_accesses::total       122900                       # number of WriteReq accesses(hits+misses)
system.cpu.dcache.WriteReq_miss_rate::.cpu.data     0.172205                       # miss rate for WriteReq accesses
system.cpu.dcache.WriteReq_miss_rate::total     0.172205                       # miss rate for WriteReq accesses
system.cpu.dcache.WriteReq_avg_miss_latency::.cpu.data 52237.665848                       # average WriteReq miss latency
system.cpu.dcache.WriteReq_avg_miss_latency::total 52237.665848                       # average WriteReq miss latency
system.cpu.dcache.WriteReq_mshr_hits::.cpu.data        18426                       # number of WriteReq MSHR hits
system.cpu.dcache.WriteReq_mshr_hits::total        18426                       # number of WriteReq MSHR hits
system.cpu.dcache.WriteReq_mshr_misses::.cpu.data         2738                       # number of WriteReq MSHR misses
system.cpu.dcache.WriteReq_mshr_misses::total         2738                       # number of WriteReq MSHR misses
system.cpu.dcache.WriteReq_mshr_miss_latency::.cpu.data    214681487                       # number of WriteReq MSHR miss cycles
system.cpu.dcache.WriteReq_mshr_miss_latency::total    214681487                       # number of WriteReq MSHR miss cycles
system.cpu.dcache.WriteReq_mshr_miss_rate::.cpu.data     0.022278                       # mshr miss rate for WriteReq accesses
system.cpu.dcache.WriteReq_mshr_miss_rate::total     0.022278                       # mshr miss rate for WriteReq accesses
system.cpu.dcache.WriteReq_avg_mshr_miss_latency::.cpu.data 78408.139883                       # average WriteReq mshr miss latency
system.cpu.dcache.WriteReq_avg_mshr_miss_latency::total 78408.139883                       # average WriteReq mshr miss latency
system.cpu.dcache.SoftPFReq_hits::.cpu.data            5                       # number of SoftPFReq hits
system.cpu.dcache.SoftPFReq_hits::total             5                       # number of SoftPFReq hits
system.cpu.dcache.SoftPFReq_misses::.cpu.data            3                       # number of SoftPFReq misses
system.cpu.dcache.SoftPFReq_misses::total            3                       # number of SoftPFReq misses
system.cpu.dcache.SoftPFReq_accesses::.cpu.data            8                       # number of SoftPFReq accesses(hits+misses)
system.cpu.dcache.SoftPFReq_accesses::total            8                       # number of SoftPFReq accesses(hits+misses)
system.cpu.dcache.SoftPFReq_miss_rate::.cpu.data     0.375000                       # miss rate for SoftPFReq accesses
system.cpu.dcache.SoftPFReq_miss_rate::total     0.375000                       # miss rate for SoftPFReq accesses
system.cpu.dcache.SoftPFReq_mshr_misses::.cpu.data            3                       # number of SoftPFReq MSHR misses
system.cpu.dcache.SoftPFReq_mshr_misses::total            3                       # number of SoftPFReq MSHR misses
system.cpu.dcache.SoftPFReq_mshr_miss_latency::.cpu.data       261500                       # number of SoftPFReq MSHR miss cycles
system.cpu.dcache.SoftPFReq_mshr_miss_latency::total       261500                       # number of SoftPFReq MSHR miss cycles
system.cpu.dcache.SoftPFReq_mshr_miss_rate::.cpu.data     0.375000                       # mshr miss rate for SoftPFReq accesses
system.cpu.dcache.SoftPFReq_mshr_miss_rate::total     0.375000                       # mshr miss rate for SoftPFReq accesses
system.cpu.dcache.SoftPFReq_avg_mshr_miss_latency::.cpu.data 87166.666667                       # average SoftPFReq mshr miss latency
system.cpu.dcache.SoftPFReq_avg_mshr_miss_latency::total 87166.666667                       # average SoftPFReq mshr miss latency
system.cpu.dcache.WriteLineReq_misses::.cpu.data        95933                       # number of WriteLineReq misses
system.cpu.dcache.WriteLineReq_misses::total        95933                       # number of WriteLineReq misses
system.cpu.dcache.WriteLineReq_miss_latency::.cpu.data   3162900109                       # number of WriteLineReq miss cycles
system.cpu.dcache.WriteLineReq_miss_latency::total   3162900109                       # number of WriteLineReq miss cycles
system.cpu.dcache.WriteLineReq_accesses::.cpu.data        95933                       # number of WriteLineReq accesses(hits+misses)
system.cpu.dcache.WriteLineReq_accesses::total        95933                       # number of WriteLineReq accesses(hits+misses)
system.cpu.dcache.WriteLineReq_miss_rate::.cpu.data            1                       # miss rate for WriteLineReq accesses
system.cpu.dcache.WriteLineReq_miss_rate::total            1                       # miss rate for WriteLineReq accesses
system.cpu.dcache.WriteLineReq_avg_miss_latency::.cpu.data 32969.886369                       # average WriteLineReq miss latency
system.cpu.dcache.WriteLineReq_avg_miss_latency::total 32969.886369                       # average WriteLineReq miss latency
system.cpu.dcache.WriteLineReq_mshr_misses::.cpu.data        95933                       # number of WriteLineReq MSHR misses
system.cpu.dcache.WriteLineReq_mshr_misses::total        95933                       # number of WriteLineReq MSHR misses
system.cpu.dcache.WriteLineReq_mshr_miss_latency::.cpu.data   3066971109                       # number of WriteLineReq MSHR miss cycles
system.cpu.dcache.WriteLineReq_mshr_miss_latency::total   3066971109                       # number of WriteLineReq MSHR miss cycles
system.cpu.dcache.WriteLineReq_mshr_miss_rate::.cpu.data            1                       # mshr miss rate for WriteLineReq accesses
system.cpu.dcache.WriteLineReq_mshr_miss_rate::total            1                       # mshr miss rate for WriteLineReq accesses
system.cpu.dcache.WriteLineReq_avg_mshr_miss_latency::.cpu.data 31969.928064                       # average WriteLineReq mshr miss latency
system.cpu.dcache.WriteLineReq_avg_mshr_miss_latency::total 31969.928064                       # average WriteLineReq mshr miss latency
system.cpu.dcache.LoadLockedReq_hits::.cpu.data           23                       # number of LoadLockedReq hits
system.cpu.dcache.LoadLockedReq_hits::total           23                       # number of LoadLockedReq hits
system.cpu.dcache.LoadLockedReq_misses::.cpu.data            1                       # number of LoadLockedReq misses
system.cpu.dcache.LoadLockedReq_misses::total            1                       # number of LoadLockedReq misses
system.cpu.dcache.LoadLockedReq_miss_latency::.cpu.data       100500                       # number of LoadLockedReq miss cycles
system.cpu.dcache.LoadLockedReq_miss_latency::total       100500                       # number of LoadLockedReq miss cycles
system.cpu.dcache.LoadLockedReq_accesses::.cpu.data           24                       # number of LoadLockedReq accesses(hits+misses)
system.cpu.dcache.LoadLockedReq_accesses::total           24                       # number of LoadLockedReq accesses(hits+misses)
system.cpu.dcache.LoadLockedReq_miss_rate::.cpu.data     0.041667                       # miss rate for LoadLockedReq accesses
system.cpu.dcache.LoadLockedReq_miss_rate::total     0.041667                       # miss rate for LoadLockedReq accesses
system.cpu.dcache.LoadLockedReq_avg_miss_latency::.cpu.data       100500                       # average LoadLockedReq miss latency
system.cpu.dcache.LoadLockedReq_avg_miss_latency::total       100500                       # average LoadLockedReq miss latency
system.cpu.dcache.LoadLockedReq_mshr_misses::.cpu.data            1                       # number of LoadLockedReq MSHR misses
system.cpu.dcache.LoadLockedReq_mshr_misses::total            1                       # number of LoadLockedReq MSHR misses
system.cpu.dcache.LoadLockedReq_mshr_miss_latency::.cpu.data        99500                       # number of LoadLockedReq MSHR miss cycles
system.cpu.dcache.LoadLockedReq_mshr_miss_latency::total        99500                       # number of LoadLockedReq MSHR miss cycles
system.cpu.dcache.LoadLockedReq_mshr_miss_rate::.cpu.data     0.041667                       # mshr miss rate for LoadLockedReq accesses
system.cpu.dcache.LoadLockedReq_mshr_miss_rate::total     0.041667                       # mshr miss rate for LoadLockedReq accesses
system.cpu.dcache.LoadLockedReq_avg_mshr_miss_latency::.cpu.data        99500                       # average LoadLockedReq mshr miss latency
system.cpu.dcache.LoadLockedReq_avg_mshr_miss_latency::total        99500                       # average LoadLockedReq mshr miss latency
system.cpu.dcache.StoreCondReq_hits::.cpu.data           20                       # number of StoreCondReq hits
system.cpu.dcache.StoreCondReq_hits::total           20                       # number of StoreCondReq hits
system.cpu.dcache.StoreCondReq_accesses::.cpu.data           20                       # number of StoreCondReq accesses(hits+misses)
system.cpu.dcache.StoreCondReq_accesses::total           20                       # number of StoreCondReq accesses(hits+misses)
system.cpu.dcache.power_state.pwrStateResidencyTicks::UNDEFINED   1120044000                       # Cumulative time (in ticks) in various power states
system.cpu.dcache.tags.tagsinuse           982.764404                       # Cycle average of tags in use
system.cpu.dcache.tags.total_refs              380599                       # Total number of references to valid blocks.
system.cpu.dcache.tags.sampled_refs             98804                       # Sample count of references to valid blocks.
system.cpu.dcache.tags.avg_refs              3.852061                       # Average number of references to valid blocks.
system.cpu.dcache.tags.warmup_cycle            268500                       # Cycle when the warmup percentage was hit.
system.cpu.dcache.tags.occ_blocks::.cpu.data   982.764404                       # Average occupied blocks per requestor
system.cpu.dcache.tags.occ_percent::.cpu.data     0.959731                       # Average percentage of cache occupancy
system.cpu.dcache.tags.occ_percent::total     0.959731                       # Average percentage of cache occupancy
system.cpu.dcache.tags.occ_task_id_blocks::1024         1024                       # Occupied blocks per task id
system.cpu.dcache.tags.age_task_id_blocks_1024::0         1024                       # Occupied blocks per task id
system.cpu.dcache.tags.occ_task_id_percent::1024            1                       # Percentage of cache occupancy per task id
system.cpu.dcache.tags.tag_accesses            897368                       # Number of tag accesses
system.cpu.dcache.tags.data_accesses           897368                       # Number of data accesses
system.cpu.dcache.tags.power_state.pwrStateResidencyTicks::UNDEFINED   1120044000                       # Cumulative time (in ticks) in various power states
system.cpu.power_state.pwrStateResidencyTicks::ON   1120044000                       # Cumulative time (in ticks) in various power states

---------- End Simulation Statistics   ----------
