
---------- Begin Simulation Statistics ----------
final_tick                                  284875500                       # Number of ticks from beginning of simulation (restored from checkpoints and never reset)
host_inst_rate                                  58329                       # Simulator instruction rate (inst/s)
host_mem_usage                                 863996                       # Number of bytes of host memory used
host_op_rate                                    59253                       # Simulator op (including micro ops) rate (op/s)
host_seconds                                     4.29                       # Real time elapsed on the host
host_tick_rate                               66459386                       # Simulator tick rate (ticks/s)
sim_freq                                 1000000000000                       # Frequency of simulated ticks
sim_insts                                      250005                       # Number of instructions simulated
sim_ops                                        253983                       # Number of ops (including micro ops) simulated
sim_seconds                                  0.000285                       # Number of seconds simulated
sim_ticks                                   284875500                       # Number of ticks simulated
system.cpu.branchPred.BTBCorrect                    0                       # Number of correct BTB predictions (this stat may not work properly.
system.cpu.branchPred.BTBHitPct             93.299114                       # BTB Hit Percentage
system.cpu.branchPred.BTBHits                   59620                       # Number of BTB hits
system.cpu.branchPred.BTBLookups                63902                       # Number of BTB lookups
system.cpu.branchPred.RASInCorrect                  1                       # Number of incorrect RAS predictions.
system.cpu.branchPred.condIncorrect              1298                       # Number of conditional branches incorrect
system.cpu.branchPred.condPredicted             64457                       # Number of conditional branches predicted
system.cpu.branchPred.indirectHits                  9                       # Number of indirect target hits.
system.cpu.branchPred.indirectLookups             220                       # Number of indirect predictor lookups.
system.cpu.branchPred.indirectMisses              211                       # Number of indirect misses.
system.cpu.branchPred.lookups                   67110                       # Number of BP lookups
system.cpu.branchPred.usedRAS                     616                       # Number of times the RAS was used to get a target.
system.cpu.branchPredindirectMispredicted           63                       # Number of mispredicted indirect branches.
system.cpu.cc_regfile_reads                    161472                       # number of cc regfile reads
system.cpu.cc_regfile_writes                   161533                       # number of cc regfile writes
system.cpu.commit.amos                              0                       # Number of atomic instructions committed
system.cpu.commit.branchMispredicts               934                       # The number of times a branch was mispredicted
system.cpu.commit.branches                      42430                       # Number of branches committed
system.cpu.commit.bw_lim_events                 13914                       # number cycles where commit BW limit reached
system.cpu.commit.commitNonSpecStalls              84                       # The number of times commit has been forced to stall to communicate backwards
system.cpu.commit.commitSquashedInsts           65386                       # The number of squashed insts skipped by commit
system.cpu.commit.committedInsts               250061                       # Number of instructions committed
system.cpu.commit.committedOps                 254039                       # Number of ops (including micro ops) committed
system.cpu.commit.committed_per_cycle::samples       501460                       # Number of insts commited each cycle
system.cpu.commit.committed_per_cycle::mean     0.506599                       # Number of insts commited each cycle
system.cpu.commit.committed_per_cycle::stdev     1.572631                       # Number of insts commited each cycle
system.cpu.commit.committed_per_cycle::underflows            0      0.00%      0.00% # Number of insts commited each cycle
system.cpu.commit.committed_per_cycle::0       432693     86.29%     86.29% # Number of insts commited each cycle
system.cpu.commit.committed_per_cycle::1        19657      3.92%     90.21% # Number of insts commited each cycle
system.cpu.commit.committed_per_cycle::2         4609      0.92%     91.13% # Number of insts commited each cycle
system.cpu.commit.committed_per_cycle::3        11981      2.39%     93.51% # Number of insts commited each cycle
system.cpu.commit.committed_per_cycle::4        16484      3.29%     96.80% # Number of insts commited each cycle
system.cpu.commit.committed_per_cycle::5         1101      0.22%     97.02% # Number of insts commited each cycle
system.cpu.commit.committed_per_cycle::6          679      0.14%     97.16% # Number of insts commited each cycle
system.cpu.commit.committed_per_cycle::7          342      0.07%     97.23% # Number of insts commited each cycle
system.cpu.commit.committed_per_cycle::8        13914      2.77%    100.00% # Number of insts commited each cycle
system.cpu.commit.committed_per_cycle::overflows            0      0.00%    100.00% # Number of insts commited each cycle
system.cpu.commit.committed_per_cycle::min_value            0                       # Number of insts commited each cycle
system.cpu.commit.committed_per_cycle::max_value            8                       # Number of insts commited each cycle
system.cpu.commit.committed_per_cycle::total       501460                       # Number of insts commited each cycle
system.cpu.commit.fp_insts                          0                       # Number of committed floating point instructions.
system.cpu.commit.function_calls                  280                       # Number of function calls committed.
system.cpu.commit.int_insts                    213317                       # Number of committed integer instructions.
system.cpu.commit.loads                         55663                       # Number of loads committed
system.cpu.commit.membars                          58                       # Number of memory barriers committed
system.cpu.commit.op_class_0::No_OpClass            4      0.00%      0.00% # Class of committed instruction
system.cpu.commit.op_class_0::IntAlu           156235     61.50%     61.50% # Class of committed instruction
system.cpu.commit.op_class_0::IntMult              42      0.02%     61.52% # Class of committed instruction
system.cpu.commit.op_class_0::IntDiv                3      0.00%     61.52% # Class of committed instruction
system.cpu.commit.op_class_0::FloatAdd             12      0.00%     61.52% # Class of committed instruction
system.cpu.commit.op_class_0::FloatCmp              1      0.00%     61.52% # Class of committed instruction
system.cpu.commit.op_class_0::FloatCvt             11      0.00%     61.53% # Class of committed instruction
system.cpu.commit.op_class_0::FloatMult             6      0.00%     61.53% # Class of committed instruction
system.cpu.commit.op_class_0::FloatMultAcc           16      0.01%     61.54% # Class of committed instruction
system.cpu.commit.op_class_0::FloatDiv              8      0.00%     61.54% # Class of committed instruction
system.cpu.commit.op_class_0::FloatMisc            11      0.00%     61.55% # Class of committed instruction
system.cpu.commit.op_class_0::FloatSqrt             0      0.00%     61.55% # Class of committed instruction
system.cpu.commit.op_class_0::SimdAdd              18      0.01%     61.55% # Class of committed instruction
system.cpu.commit.op_class_0::SimdAddAcc            0      0.00%     61.55% # Class of committed instruction
system.cpu.commit.op_class_0::SimdAlu              18      0.01%     61.56% # Class of committed instruction
system.cpu.commit.op_class_0::SimdCmp              16      0.01%     61.57% # Class of committed instruction
system.cpu.commit.op_class_0::SimdCvt               2      0.00%     61.57% # Class of committed instruction
system.cpu.commit.op_class_0::SimdMisc             15      0.01%     61.57% # Class of committed instruction
system.cpu.commit.op_class_0::SimdMult              0      0.00%     61.57% # Class of committed instruction
system.cpu.commit.op_class_0::SimdMultAcc            0      0.00%     61.57% # Class of committed instruction
system.cpu.commit.op_class_0::SimdShift             0      0.00%     61.57% # Class of committed instruction
system.cpu.commit.op_class_0::SimdShiftAcc            0      0.00%     61.57% # Class of committed instruction
system.cpu.commit.op_class_0::SimdDiv               0      0.00%     61.57% # Class of committed instruction
system.cpu.commit.op_class_0::SimdSqrt              0      0.00%     61.57% # Class of committed instruction
system.cpu.commit.op_class_0::SimdFloatAdd            0      0.00%     61.57% # Class of committed instruction
system.cpu.commit.op_class_0::SimdFloatAlu            0      0.00%     61.57% # Class of committed instruction
system.cpu.commit.op_class_0::SimdFloatCmp            0      0.00%     61.57% # Class of committed instruction
system.cpu.commit.op_class_0::SimdFloatCvt            0      0.00%     61.57% # Class of committed instruction
system.cpu.commit.op_class_0::SimdFloatDiv            0      0.00%     61.57% # Class of committed instruction
system.cpu.commit.op_class_0::SimdFloatMisc            0      0.00%     61.57% # Class of committed instruction
system.cpu.commit.op_class_0::SimdFloatMult            0      0.00%     61.57% # Class of committed instruction
system.cpu.commit.op_class_0::SimdFloatMultAcc            0      0.00%     61.57% # Class of committed instruction
system.cpu.commit.op_class_0::SimdFloatSqrt            0      0.00%     61.57% # Class of committed instruction
system.cpu.commit.op_class_0::SimdReduceAdd            0      0.00%     61.57% # Class of committed instruction
system.cpu.commit.op_class_0::SimdReduceAlu            0      0.00%     61.57% # Class of committed instruction
system.cpu.commit.op_class_0::SimdReduceCmp            0      0.00%     61.57% # Class of committed instruction
system.cpu.commit.op_class_0::SimdFloatReduceAdd            0      0.00%     61.57% # Class of committed instruction
system.cpu.commit.op_class_0::SimdFloatReduceCmp            0      0.00%     61.57% # Class of committed instruction
system.cpu.commit.op_class_0::SimdAes               0      0.00%     61.57% # Class of committed instruction
system.cpu.commit.op_class_0::SimdAesMix            0      0.00%     61.57% # Class of committed instruction
system.cpu.commit.op_class_0::SimdSha1Hash            0      0.00%     61.57% # Class of committed instruction
system.cpu.commit.op_class_0::SimdSha1Hash2            0      0.00%     61.57% # Class of committed instruction
system.cpu.commit.op_class_0::SimdSha256Hash            0      0.00%     61.57% # Class of committed instruction
system.cpu.commit.op_class_0::SimdSha256Hash2            0      0.00%     61.57% # Class of committed instruction
system.cpu.commit.op_class_0::SimdShaSigma2            0      0.00%     61.57% # Class of committed instruction
system.cpu.commit.op_class_0::SimdShaSigma3            0      0.00%     61.57% # Class of committed instruction
system.cpu.commit.op_class_0::SimdPredAlu            0      0.00%     61.57% # Class of committed instruction
system.cpu.commit.op_class_0::MemRead           55663     21.91%     83.48% # Class of committed instruction
system.cpu.commit.op_class_0::MemWrite          41958     16.52%    100.00% # Class of committed instruction
system.cpu.commit.op_class_0::FloatMemRead            0      0.00%    100.00% # Class of committed instruction
system.cpu.commit.op_class_0::FloatMemWrite            0      0.00%    100.00% # Class of committed instruction
system.cpu.commit.op_class_0::IprAccess             0      0.00%    100.00% # Class of committed instruction
system.cpu.commit.op_class_0::InstPrefetch            0      0.00%    100.00% # Class of committed instruction
system.cpu.commit.op_class_0::total            254039                       # Class of committed instruction
system.cpu.commit.refs                          97621                       # Number of memory references committed
system.cpu.commit.swp_count                         0                       # Number of s/w prefetches committed
system.cpu.commit.vec_insts                       465                       # Number of committed Vector instructions.
system.cpu.committedInsts                      250005                       # Number of Instructions Simulated
system.cpu.committedOps                        253983                       # Number of Ops (including micro ops) Simulated
system.cpu.cpi                               2.278962                       # CPI: Cycles Per Instruction
system.cpu.cpi_total                         2.278962                       # CPI: Total CPI of All Threads
system.cpu.decode.BlockedCycles                430105                       # Number of cycles decode is blocked
system.cpu.decode.BranchMispred                   374                       # Number of times decode detected a branch misprediction
system.cpu.decode.BranchResolved                55682                       # Number of times decode resolved a branch
system.cpu.decode.DecodedInsts                 334047                       # Number of instructions handled by decode
system.cpu.decode.IdleCycles                    26815                       # Number of cycles decode is idle
system.cpu.decode.RunCycles                     35225                       # Number of cycles decode is running
system.cpu.decode.SquashCycles                   1377                       # Number of cycles decode is squashing
system.cpu.decode.SquashedInsts                  1343                       # Number of squashed instructions handled by decode
system.cpu.decode.UnblockCycles                 16668                       # Number of cycles decode is unblocking
system.cpu.dtb.accesses                             0                       # DTB accesses
system.cpu.dtb.align_faults                         0                       # Number of TLB faults due to alignment restrictions
system.cpu.dtb.domain_faults                        0                       # Number of TLB faults due to domain restrictions
system.cpu.dtb.flush_entries                        0                       # Number of entries that have been flushed from TLB
system.cpu.dtb.flush_tlb                            0                       # Number of times complete TLB was flushed
system.cpu.dtb.flush_tlb_asid                       0                       # Number of times TLB was flushed by ASID
system.cpu.dtb.flush_tlb_mva                        0                       # Number of times TLB was flushed by MVA
system.cpu.dtb.flush_tlb_mva_asid                   0                       # Number of times TLB was flushed by MVA & ASID
system.cpu.dtb.hits                                 0                       # DTB hits
system.cpu.dtb.inst_accesses                        0                       # ITB inst accesses
system.cpu.dtb.inst_hits                            0                       # ITB inst hits
system.cpu.dtb.inst_misses                          0                       # ITB inst misses
system.cpu.dtb.misses                               0                       # DTB misses
system.cpu.dtb.perms_faults                         0                       # Number of TLB faults due to permissions restrictions
system.cpu.dtb.prefetch_faults                      0                       # Number of TLB faults due to prefetch
system.cpu.dtb.read_accesses                        0                       # DTB read accesses
system.cpu.dtb.read_hits                            0                       # DTB read hits
system.cpu.dtb.read_misses                          0                       # DTB read misses
system.cpu.dtb.stage2_mmu.stage2_tlb.accesses            0                       # DTB accesses
system.cpu.dtb.stage2_mmu.stage2_tlb.align_faults            0                       # Number of TLB faults due to alignment restrictions
system.cpu.dtb.stage2_mmu.stage2_tlb.domain_faults            0                       # Number of TLB faults due to domain restrictions
system.cpu.dtb.stage2_mmu.stage2_tlb.flush_entries            0                       # Number of entries that have been flushed from TLB
system.cpu.dtb.stage2_mmu.stage2_tlb.flush_tlb            0                       # Number of times complete TLB was flushed
system.cpu.dtb.stage2_mmu.stage2_tlb.flush_tlb_asid            0                       # Number of times TLB was flushed by ASID
system.cpu.dtb.stage2_mmu.stage2_tlb.flush_tlb_mva            0                       # Number of times TLB was flushed by MVA
system.cpu.dtb.stage2_mmu.stage2_tlb.flush_tlb_mva_asid            0                       # Number of times TLB was flushed by MVA & ASID
system.cpu.dtb.stage2_mmu.stage2_tlb.hits            0                       # DTB hits
system.cpu.dtb.stage2_mmu.stage2_tlb.inst_accesses            0                       # ITB inst accesses
system.cpu.dtb.stage2_mmu.stage2_tlb.inst_hits            0                       # ITB inst hits
system.cpu.dtb.stage2_mmu.stage2_tlb.inst_misses            0                       # ITB inst misses
system.cpu.dtb.stage2_mmu.stage2_tlb.misses            0                       # DTB misses
system.cpu.dtb.stage2_mmu.stage2_tlb.perms_faults            0                       # Number of TLB faults due to permissions restrictions
system.cpu.dtb.stage2_mmu.stage2_tlb.prefetch_faults            0                       # Number of TLB faults due to prefetch
system.cpu.dtb.stage2_mmu.stage2_tlb.read_accesses            0                       # DTB read accesses
system.cpu.dtb.stage2_mmu.stage2_tlb.read_hits            0                       # DTB read hits
system.cpu.dtb.stage2_mmu.stage2_tlb.read_misses            0                       # DTB read misses
system.cpu.dtb.stage2_mmu.stage2_tlb.walker.walkRequestOrigin_Requested::Data            0                       # Table walker requests started/completed, data/inst
system.cpu.dtb.stage2_mmu.stage2_tlb.walker.walkRequestOrigin_Requested::Inst            0                       # Table walker requests started/completed, data/inst
system.cpu.dtb.stage2_mmu.stage2_tlb.walker.walkRequestOrigin_Requested::total            0                       # Table walker requests started/completed, data/inst
system.cpu.dtb.stage2_mmu.stage2_tlb.walker.walkRequestOrigin_Completed::Data            0                       # Table walker requests started/completed, data/inst
system.cpu.dtb.stage2_mmu.stage2_tlb.walker.walkRequestOrigin_Completed::Inst            0                       # Table walker requests started/completed, data/inst
system.cpu.dtb.stage2_mmu.stage2_tlb.walker.walkRequestOrigin_Completed::total            0                       # Table walker requests started/completed, data/inst
system.cpu.dtb.stage2_mmu.stage2_tlb.walker.walkRequestOrigin::total            0                       # Table walker requests started/completed, data/inst
system.cpu.dtb.stage2_mmu.stage2_tlb.walker.walks            0                       # Table walker walks requested
system.cpu.dtb.stage2_mmu.stage2_tlb.write_accesses            0                       # DTB write accesses
system.cpu.dtb.stage2_mmu.stage2_tlb.write_hits            0                       # DTB write hits
system.cpu.dtb.stage2_mmu.stage2_tlb.write_misses            0                       # DTB write misses
system.cpu.dtb.walker.walkRequestOrigin_Requested::Data            0                       # Table walker requests started/completed, data/inst
system.cpu.dtb.walker.walkRequestOrigin_Requested::Inst            0                       # Table walker requests started/completed, data/inst
system.cpu.dtb.walker.walkRequestOrigin_Requested::total            0                       # Table walker requests started/completed, data/inst
system.cpu.dtb.walker.walkRequestOrigin_Completed::Data            0                       # Table walker requests started/completed, data/inst
system.cpu.dtb.walker.walkRequestOrigin_Completed::Inst            0                       # Table walker requests started/completed, data/inst
system.cpu.dtb.walker.walkRequestOrigin_Completed::total            0                       # Table walker requests started/completed, data/inst
system.cpu.dtb.walker.walkRequestOrigin::total            0                       # Table walker requests started/completed, data/inst
system.cpu.dtb.walker.walks                         0                       # Table walker walks requested
system.cpu.dtb.write_accesses                       0                       # DTB write accesses
system.cpu.dtb.write_hits                           0                       # DTB write hits
system.cpu.dtb.write_misses                         0                       # DTB write misses
system.cpu.fetch.Branches                       67110                       # Number of branches that fetch encountered
system.cpu.fetch.CacheLines                      7891                       # Number of cache lines fetched
system.cpu.fetch.Cycles                        483585                       # Number of cycles fetch has run and was not squashing or blocked
system.cpu.fetch.IcacheSquashes                   834                       # Number of outstanding Icache misses that were squashed
system.cpu.fetch.IcacheWaitRetryStallCycles           72                       # Number of stall cycles due to full MSHR
system.cpu.fetch.Insts                         351706                       # Number of instructions fetch has processed
system.cpu.fetch.MiscStallCycles                    8                       # Number of cycles fetch has spent waiting on interrupts, or bad addresses, or out of MSHRs
system.cpu.fetch.SquashCycles                    3482                       # Number of cycles fetch has spent squashing
system.cpu.fetch.branchRate                  0.117788                       # Number of branch fetches per cycle
system.cpu.fetch.icacheStallCycles              24784                       # Number of cycles fetch is stalled on an Icache miss
system.cpu.fetch.predictedBranches              60245                       # Number of branches that fetch has predicted taken
system.cpu.fetch.rate                        0.617297                       # Number of inst fetches per cycle
system.cpu.fetch.rateDist::samples             510190                       # Number of instructions fetched each cycle (Total)
system.cpu.fetch.rateDist::mean              0.703430                       # Number of instructions fetched each cycle (Total)
system.cpu.fetch.rateDist::stdev             1.824907                       # Number of instructions fetched each cycle (Total)
system.cpu.fetch.rateDist::underflows               0      0.00%      0.00% # Number of instructions fetched each cycle (Total)
system.cpu.fetch.rateDist::0                   431205     84.52%     84.52% # Number of instructions fetched each cycle (Total)
system.cpu.fetch.rateDist::1                      937      0.18%     84.70% # Number of instructions fetched each cycle (Total)
system.cpu.fetch.rateDist::2                    13316      2.61%     87.31% # Number of instructions fetched each cycle (Total)
system.cpu.fetch.rateDist::3                      810      0.16%     87.47% # Number of instructions fetched each cycle (Total)
system.cpu.fetch.rateDist::4                    44085      8.64%     96.11% # Number of instructions fetched each cycle (Total)
system.cpu.fetch.rateDist::5                      657      0.13%     96.24% # Number of instructions fetched each cycle (Total)
system.cpu.fetch.rateDist::6                     1722      0.34%     96.58% # Number of instructions fetched each cycle (Total)
system.cpu.fetch.rateDist::7                      737      0.14%     96.72% # Number of instructions fetched each cycle (Total)
system.cpu.fetch.rateDist::8                    16721      3.28%    100.00% # Number of instructions fetched each cycle (Total)
system.cpu.fetch.rateDist::overflows                0      0.00%    100.00% # Number of instructions fetched each cycle (Total)
system.cpu.fetch.rateDist::min_value                0                       # Number of instructions fetched each cycle (Total)
system.cpu.fetch.rateDist::max_value                8                       # Number of instructions fetched each cycle (Total)
system.cpu.fetch.rateDist::total               510190                       # Number of instructions fetched each cycle (Total)
system.cpu.idleCycles                           59562                       # Total number of cycles that the CPU has spent unscheduled due to idling
system.cpu.iew.branchMispredicts                 1084                       # Number of branch mispredicts detected at execute
system.cpu.iew.exec_branches                    56563                       # Number of branches executed
system.cpu.iew.exec_nop                           105                       # number of nop insts executed
system.cpu.iew.exec_rate                     0.575940                       # Inst execution rate
system.cpu.iew.exec_refs                       127057                       # number of memory reference insts executed
system.cpu.iew.exec_stores                      55554                       # Number of stores executed
system.cpu.iew.exec_swp                             0                       # number of swp insts executed
system.cpu.iew.iewBlockCycles                   13986                       # Number of cycles IEW is blocking
system.cpu.iew.iewDispLoadInsts                 58797                       # Number of dispatched load instructions
system.cpu.iew.iewDispNonSpecInsts                139                       # Number of dispatched non-speculative instructions
system.cpu.iew.iewDispSquashedInsts               376                       # Number of squashed instructions skipped by dispatch
system.cpu.iew.iewDispStoreInsts                56532                       # Number of dispatched store instructions
system.cpu.iew.iewDispatchedInsts              321139                       # Number of instructions dispatched to IQ
system.cpu.iew.iewExecLoadInsts                 71503                       # Number of load instructions executed
system.cpu.iew.iewExecSquashedInsts              1421                       # Number of squashed instructions skipped in execute
system.cpu.iew.iewExecutedInsts                328143                       # Number of executed instructions
system.cpu.iew.iewIQFullEvents                      8                       # Number of times the IQ has become full, causing a stall
system.cpu.iew.iewIdleCycles                        0                       # Number of cycles IEW is idle
system.cpu.iew.iewLSQFullEvents                 22081                       # Number of times the LSQ has become full, causing a stall
system.cpu.iew.iewSquashCycles                   1377                       # Number of cycles IEW is squashing
system.cpu.iew.iewUnblockCycles                 22150                       # Number of cycles IEW is unblocking
system.cpu.iew.lsq.thread0.blockedLoads             0                       # Number of blocked loads due to partial load-store forwarding
system.cpu.iew.lsq.thread0.cacheBlocked         20851                       # Number of times an access to memory failed due to the cache being blocked
system.cpu.iew.lsq.thread0.forwLoads               89                       # Number of loads that had data forwarded from stores
system.cpu.iew.lsq.thread0.ignoredResponses            2                       # Number of memory responses ignored because the instruction is squashed
system.cpu.iew.lsq.thread0.invAddrLoads             0                       # Number of loads ignored due to an invalid address
system.cpu.iew.lsq.thread0.invAddrSwpfs             0                       # Number of software prefetches ignored due to an invalid address
system.cpu.iew.lsq.thread0.memOrderViolation           29                       # Number of memory ordering violations
system.cpu.iew.lsq.thread0.rescheduledLoads           90                       # Number of loads that were rescheduled
system.cpu.iew.lsq.thread0.squashedLoads         3117                       # Number of loads squashed
system.cpu.iew.lsq.thread0.squashedStores        14569                       # Number of stores squashed
system.cpu.iew.memOrderViolationEvents             29                       # Number of memory order violations
system.cpu.iew.predictedNotTakenIncorrect          760                       # Number of branches that were predicted not taken incorrectly
system.cpu.iew.predictedTakenIncorrect            324                       # Number of branches that were predicted taken incorrectly
system.cpu.iew.wb_consumers                    343360                       # num instructions consuming a value
system.cpu.iew.wb_count                        301349                       # cumulative count of insts written-back
system.cpu.iew.wb_fanout                     0.501715                       # average fanout of values written-back
system.cpu.iew.wb_producers                    172269                       # num instructions producing a value
system.cpu.iew.wb_rate                       0.528913                       # insts written-back per cycle
system.cpu.iew.wb_sent                         313672                       # cumulative count of insts sent to commit
system.cpu.int_regfile_reads                   358773                       # number of integer regfile reads
system.cpu.int_regfile_writes                  202992                       # number of integer regfile writes
system.cpu.ipc                               0.438796                       # IPC: Instructions Per Cycle
system.cpu.ipc_total                         0.438796                       # IPC: Total IPC of All Threads
system.cpu.iq.FU_type_0::No_OpClass                 6      0.00%      0.00% # Type of FU issued
system.cpu.iq.FU_type_0::IntAlu                201631     61.18%     61.18% # Type of FU issued
system.cpu.iq.FU_type_0::IntMult                   42      0.01%     61.20% # Type of FU issued
system.cpu.iq.FU_type_0::IntDiv                     3      0.00%     61.20% # Type of FU issued
system.cpu.iq.FU_type_0::FloatAdd                  12      0.00%     61.20% # Type of FU issued
system.cpu.iq.FU_type_0::FloatCmp                   1      0.00%     61.20% # Type of FU issued
system.cpu.iq.FU_type_0::FloatCvt                  11      0.00%     61.20% # Type of FU issued
system.cpu.iq.FU_type_0::FloatMult                  6      0.00%     61.21% # Type of FU issued
system.cpu.iq.FU_type_0::FloatMultAcc              16      0.00%     61.21% # Type of FU issued
system.cpu.iq.FU_type_0::FloatDiv                   8      0.00%     61.21% # Type of FU issued
system.cpu.iq.FU_type_0::FloatMisc                 11      0.00%     61.22% # Type of FU issued
system.cpu.iq.FU_type_0::FloatSqrt                  0      0.00%     61.22% # Type of FU issued
system.cpu.iq.FU_type_0::SimdAdd                   24      0.01%     61.22% # Type of FU issued
system.cpu.iq.FU_type_0::SimdAddAcc                 0      0.00%     61.22% # Type of FU issued
system.cpu.iq.FU_type_0::SimdAlu                   22      0.01%     61.23% # Type of FU issued
system.cpu.iq.FU_type_0::SimdCmp                   23      0.01%     61.24% # Type of FU issued
system.cpu.iq.FU_type_0::SimdCvt                    2      0.00%     61.24% # Type of FU issued
system.cpu.iq.FU_type_0::SimdMisc                  19      0.01%     61.24% # Type of FU issued
system.cpu.iq.FU_type_0::SimdMult                   0      0.00%     61.24% # Type of FU issued
system.cpu.iq.FU_type_0::SimdMultAcc                0      0.00%     61.24% # Type of FU issued
system.cpu.iq.FU_type_0::SimdShift                  0      0.00%     61.24% # Type of FU issued
system.cpu.iq.FU_type_0::SimdShiftAcc               0      0.00%     61.24% # Type of FU issued
system.cpu.iq.FU_type_0::SimdDiv                    0      0.00%     61.24% # Type of FU issued
system.cpu.iq.FU_type_0::SimdSqrt                   0      0.00%     61.24% # Type of FU issued
system.cpu.iq.FU_type_0::SimdFloatAdd               0      0.00%     61.24% # Type of FU issued
system.cpu.iq.FU_type_0::SimdFloatAlu               0      0.00%     61.24% # Type of FU issued
system.cpu.iq.FU_type_0::SimdFloatCmp               0      0.00%     61.24% # Type of FU issued
system.cpu.iq.FU_type_0::SimdFloatCvt               0      0.00%     61.24% # Type of FU issued
system.cpu.iq.FU_type_0::SimdFloatDiv               0      0.00%     61.24% # Type of FU issued
system.cpu.iq.FU_type_0::SimdFloatMisc              0      0.00%     61.24% # Type of FU issued
system.cpu.iq.FU_type_0::SimdFloatMult              0      0.00%     61.24% # Type of FU issued
system.cpu.iq.FU_type_0::SimdFloatMultAcc            0      0.00%     61.24% # Type of FU issued
system.cpu.iq.FU_type_0::SimdFloatSqrt              0      0.00%     61.24% # Type of FU issued
system.cpu.iq.FU_type_0::SimdReduceAdd              0      0.00%     61.24% # Type of FU issued
system.cpu.iq.FU_type_0::SimdReduceAlu              0      0.00%     61.24% # Type of FU issued
system.cpu.iq.FU_type_0::SimdReduceCmp              0      0.00%     61.24% # Type of FU issued
system.cpu.iq.FU_type_0::SimdFloatReduceAdd            0      0.00%     61.24% # Type of FU issued
system.cpu.iq.FU_type_0::SimdFloatReduceCmp            0      0.00%     61.24% # Type of FU issued
system.cpu.iq.FU_type_0::SimdAes                    0      0.00%     61.24% # Type of FU issued
system.cpu.iq.FU_type_0::SimdAesMix                 0      0.00%     61.24% # Type of FU issued
system.cpu.iq.FU_type_0::SimdSha1Hash               0      0.00%     61.24% # Type of FU issued
system.cpu.iq.FU_type_0::SimdSha1Hash2              0      0.00%     61.24% # Type of FU issued
system.cpu.iq.FU_type_0::SimdSha256Hash             0      0.00%     61.24% # Type of FU issued
system.cpu.iq.FU_type_0::SimdSha256Hash2            0      0.00%     61.24% # Type of FU issued
system.cpu.iq.FU_type_0::SimdShaSigma2              0      0.00%     61.24% # Type of FU issued
system.cpu.iq.FU_type_0::SimdShaSigma3              0      0.00%     61.24% # Type of FU issued
system.cpu.iq.FU_type_0::SimdPredAlu                0      0.00%     61.24% # Type of FU issued
system.cpu.iq.FU_type_0::MemRead                71897     21.82%     83.06% # Type of FU issued
system.cpu.iq.FU_type_0::MemWrite               55833     16.94%    100.00% # Type of FU issued
system.cpu.iq.FU_type_0::FloatMemRead               0      0.00%    100.00% # Type of FU issued
system.cpu.iq.FU_type_0::FloatMemWrite              0      0.00%    100.00% # Type of FU issued
system.cpu.iq.FU_type_0::IprAccess                  0      0.00%    100.00% # Type of FU issued
system.cpu.iq.FU_type_0::InstPrefetch               0      0.00%    100.00% # Type of FU issued
system.cpu.iq.FU_type_0::total                 329567                       # Type of FU issued
system.cpu.iq.fp_alu_accesses                       0                       # Number of floating point alu accesses
system.cpu.iq.fp_inst_queue_reads                   0                       # Number of floating instruction queue reads
system.cpu.iq.fp_inst_queue_wakeup_accesses            0                       # Number of floating instruction queue wakeup accesses
system.cpu.iq.fp_inst_queue_writes                  0                       # Number of floating instruction queue writes
system.cpu.iq.fu_busy_cnt                        5505                       # FU busy when requested
system.cpu.iq.fu_busy_rate                   0.016704                       # FU busy rate (busy events/executed inst)
system.cpu.iq.fu_full::No_OpClass                   0      0.00%      0.00% # attempts to use FU when none available
system.cpu.iq.fu_full::IntAlu                     156      2.83%      2.83% # attempts to use FU when none available
system.cpu.iq.fu_full::IntMult                      0      0.00%      2.83% # attempts to use FU when none available
system.cpu.iq.fu_full::IntDiv                       0      0.00%      2.83% # attempts to use FU when none available
system.cpu.iq.fu_full::FloatAdd                     0      0.00%      2.83% # attempts to use FU when none available
system.cpu.iq.fu_full::FloatCmp                     0      0.00%      2.83% # attempts to use FU when none available
system.cpu.iq.fu_full::FloatCvt                     0      0.00%      2.83% # attempts to use FU when none available
system.cpu.iq.fu_full::FloatMult                   14      0.25%      3.09% # attempts to use FU when none available
system.cpu.iq.fu_full::FloatMultAcc                 0      0.00%      3.09% # attempts to use FU when none available
system.cpu.iq.fu_full::FloatDiv                    21      0.38%      3.47% # attempts to use FU when none available
system.cpu.iq.fu_full::FloatMisc                    1      0.02%      3.49% # attempts to use FU when none available
system.cpu.iq.fu_full::FloatSqrt                    0      0.00%      3.49% # attempts to use FU when none available
system.cpu.iq.fu_full::SimdAdd                      0      0.00%      3.49% # attempts to use FU when none available
system.cpu.iq.fu_full::SimdAddAcc                   0      0.00%      3.49% # attempts to use FU when none available
system.cpu.iq.fu_full::SimdAlu                      1      0.02%      3.51% # attempts to use FU when none available
system.cpu.iq.fu_full::SimdCmp                      2      0.04%      3.54% # attempts to use FU when none available
system.cpu.iq.fu_full::SimdCvt                      0      0.00%      3.54% # attempts to use FU when none available
system.cpu.iq.fu_full::SimdMisc                     0      0.00%      3.54% # attempts to use FU when none available
system.cpu.iq.fu_full::SimdMult                     0      0.00%      3.54% # attempts to use FU when none available
system.cpu.iq.fu_full::SimdMultAcc                  0      0.00%      3.54% # attempts to use FU when none available
system.cpu.iq.fu_full::SimdShift                    0      0.00%      3.54% # attempts to use FU when none available
system.cpu.iq.fu_full::SimdShiftAcc                 0      0.00%      3.54% # attempts to use FU when none available
system.cpu.iq.fu_full::SimdDiv                      0      0.00%      3.54% # attempts to use FU when none available
system.cpu.iq.fu_full::SimdSqrt                     0      0.00%      3.54% # attempts to use FU when none available
system.cpu.iq.fu_full::SimdFloatAdd                 0      0.00%      3.54% # attempts to use FU when none available
system.cpu.iq.fu_full::SimdFloatAlu                 0      0.00%      3.54% # attempts to use FU when none available
system.cpu.iq.fu_full::SimdFloatCmp                 0      0.00%      3.54% # attempts to use FU when none available
system.cpu.iq.fu_full::SimdFloatCvt                 0      0.00%      3.54% # attempts to use FU when none available
system.cpu.iq.fu_full::SimdFloatDiv                 0      0.00%      3.54% # attempts to use FU when none available
system.cpu.iq.fu_full::SimdFloatMisc                0      0.00%      3.54% # attempts to use FU when none available
system.cpu.iq.fu_full::SimdFloatMult                0      0.00%      3.54% # attempts to use FU when none available
system.cpu.iq.fu_full::SimdFloatMultAcc             0      0.00%      3.54% # attempts to use FU when none available
system.cpu.iq.fu_full::SimdFloatSqrt                0      0.00%      3.54% # attempts to use FU when none available
system.cpu.iq.fu_full::SimdReduceAdd                0      0.00%      3.54% # attempts to use FU when none available
system.cpu.iq.fu_full::SimdReduceAlu                0      0.00%      3.54% # attempts to use FU when none available
system.cpu.iq.fu_full::SimdReduceCmp                0      0.00%      3.54% # attempts to use FU when none available
system.cpu.iq.fu_full::SimdFloatReduceAdd            0      0.00%      3.54% # attempts to use FU when none available
system.cpu.iq.fu_full::SimdFloatReduceCmp            0      0.00%      3.54% # attempts to use FU when none available
system.cpu.iq.fu_full::SimdAes                      0      0.00%      3.54% # attempts to use FU when none available
system.cpu.iq.fu_full::SimdAesMix                   0      0.00%      3.54% # attempts to use FU when none available
system.cpu.iq.fu_full::SimdSha1Hash                 0      0.00%      3.54% # attempts to use FU when none available
system.cpu.iq.fu_full::SimdSha1Hash2                0      0.00%      3.54% # attempts to use FU when none available
system.cpu.iq.fu_full::SimdSha256Hash               0      0.00%      3.54% # attempts to use FU when none available
system.cpu.iq.fu_full::SimdSha256Hash2              0      0.00%      3.54% # attempts to use FU when none available
system.cpu.iq.fu_full::SimdShaSigma2                0      0.00%      3.54% # attempts to use FU when none available
system.cpu.iq.fu_full::SimdShaSigma3                0      0.00%      3.54% # attempts to use FU when none available
system.cpu.iq.fu_full::SimdPredAlu                  0      0.00%      3.54% # attempts to use FU when none available
system.cpu.iq.fu_full::MemRead                   4865     88.37%     91.92% # attempts to use FU when none available
system.cpu.iq.fu_full::MemWrite                   445      8.08%    100.00% # attempts to use FU when none available
system.cpu.iq.fu_full::FloatMemRead                 0      0.00%    100.00% # attempts to use FU when none available
system.cpu.iq.fu_full::FloatMemWrite                0      0.00%    100.00% # attempts to use FU when none available
system.cpu.iq.fu_full::IprAccess                    0      0.00%    100.00% # attempts to use FU when none available
system.cpu.iq.fu_full::InstPrefetch                 0      0.00%    100.00% # attempts to use FU when none available
system.cpu.iq.int_alu_accesses                 334460                       # Number of integer alu accesses
system.cpu.iq.int_inst_queue_reads            1173770                       # Number of integer instruction queue reads
system.cpu.iq.int_inst_queue_wakeup_accesses       300847                       # Number of integer instruction queue wakeup accesses
system.cpu.iq.int_inst_queue_writes            387398                       # Number of integer instruction queue writes
system.cpu.iq.iqInstsAdded                     320895                       # Number of instructions added to the IQ (excludes non-spec)
system.cpu.iq.iqInstsIssued                    329567                       # Number of instructions issued
system.cpu.iq.iqNonSpecInstsAdded                 139                       # Number of non-speculative instructions added to the IQ
system.cpu.iq.iqSquashedInstsExamined           67007                       # Number of squashed instructions iterated over during squash; mainly for profiling
system.cpu.iq.iqSquashedInstsIssued                92                       # Number of squashed instructions issued
system.cpu.iq.iqSquashedNonSpecRemoved             55                       # Number of squashed non-spec instructions that were removed
system.cpu.iq.iqSquashedOperandsExamined        70927                       # Number of squashed operands that are examined and possibly removed from graph
system.cpu.iq.issued_per_cycle::samples        510190                       # Number of insts issued each cycle
system.cpu.iq.issued_per_cycle::mean         0.645969                       # Number of insts issued each cycle
system.cpu.iq.issued_per_cycle::stdev        1.528214                       # Number of insts issued each cycle
system.cpu.iq.issued_per_cycle::underflows            0      0.00%      0.00% # Number of insts issued each cycle
system.cpu.iq.issued_per_cycle::0              409189     80.20%     80.20% # Number of insts issued each cycle
system.cpu.iq.issued_per_cycle::1               26063      5.11%     85.31% # Number of insts issued each cycle
system.cpu.iq.issued_per_cycle::2                4182      0.82%     86.13% # Number of insts issued each cycle
system.cpu.iq.issued_per_cycle::3               27313      5.35%     91.48% # Number of insts issued each cycle
system.cpu.iq.issued_per_cycle::4               24784      4.86%     96.34% # Number of insts issued each cycle
system.cpu.iq.issued_per_cycle::5                7220      1.42%     97.76% # Number of insts issued each cycle
system.cpu.iq.issued_per_cycle::6                4931      0.97%     98.72% # Number of insts issued each cycle
system.cpu.iq.issued_per_cycle::7                3685      0.72%     99.45% # Number of insts issued each cycle
system.cpu.iq.issued_per_cycle::8                2823      0.55%    100.00% # Number of insts issued each cycle
system.cpu.iq.issued_per_cycle::overflows            0      0.00%    100.00% # Number of insts issued each cycle
system.cpu.iq.issued_per_cycle::min_value            0                       # Number of insts issued each cycle
system.cpu.iq.issued_per_cycle::max_value            8                       # Number of insts issued each cycle
system.cpu.iq.issued_per_cycle::total          510190                       # Number of insts issued each cycle
system.cpu.iq.rate                           0.578439                       # Inst issue rate
system.cpu.iq.vec_alu_accesses                    606                       # Number of vector alu accesses
system.cpu.iq.vec_inst_queue_reads               1148                       # Number of vector instruction queue reads
system.cpu.iq.vec_inst_queue_wakeup_accesses          502                       # Number of vector instruction queue wakeup accesses
system.cpu.iq.vec_inst_queue_writes               669                       # Number of vector instruction queue writes
system.cpu.itb.accesses                             0                       # DTB accesses
system.cpu.itb.align_faults                         0                       # Number of TLB faults due to alignment restrictions
system.cpu.itb.domain_faults                        0                       # Number of TLB faults due to domain restrictions
system.cpu.itb.flush_entries                        0                       # Number of entries that have been flushed from TLB
system.cpu.itb.flush_tlb                            0                       # Number of times complete TLB was flushed
system.cpu.itb.flush_tlb_asid                       0                       # Number of times TLB was flushed by ASID
system.cpu.itb.flush_tlb_mva                        0                       # Number of times TLB was flushed by MVA
system.cpu.itb.flush_tlb_mva_asid                   0                       # Number of times TLB was flushed by MVA & ASID
system.cpu.itb.hits                                 0                       # DTB hits
system.cpu.itb.inst_accesses                        0                       # ITB inst accesses
system.cpu.itb.inst_hits                            0                       # ITB inst hits
system.cpu.itb.inst_misses                          0                       # ITB inst misses
system.cpu.itb.misses                               0                       # DTB misses
system.cpu.itb.perms_faults                         0                       # Number of TLB faults due to permissions restrictions
system.cpu.itb.prefetch_faults                      0                       # Number of TLB faults due to prefetch
system.cpu.itb.read_accesses                        0                       # DTB read accesses
system.cpu.itb.read_hits                            0                       # DTB read hits
system.cpu.itb.read_misses                          0                       # DTB read misses
system.cpu.itb.stage2_mmu.stage2_tlb.accesses            0                       # DTB accesses
system.cpu.itb.stage2_mmu.stage2_tlb.align_faults            0                       # Number of TLB faults due to alignment restrictions
system.cpu.itb.stage2_mmu.stage2_tlb.domain_faults            0                       # Number of TLB faults due to domain restrictions
system.cpu.itb.stage2_mmu.stage2_tlb.flush_entries            0                       # Number of entries that have been flushed from TLB
system.cpu.itb.stage2_mmu.stage2_tlb.flush_tlb            0                       # Number of times complete TLB was flushed
system.cpu.itb.stage2_mmu.stage2_tlb.flush_tlb_asid            0                       # Number of times TLB was flushed by ASID
system.cpu.itb.stage2_mmu.stage2_tlb.flush_tlb_mva            0                       # Number of times TLB was flushed by MVA
system.cpu.itb.stage2_mmu.stage2_tlb.flush_tlb_mva_asid            0                       # Number of times TLB was flushed by MVA & ASID
system.cpu.itb.stage2_mmu.stage2_tlb.hits            0                       # DTB hits
system.cpu.itb.stage2_mmu.stage2_tlb.inst_accesses            0                       # ITB inst accesses
system.cpu.itb.stage2_mmu.stage2_tlb.inst_hits            0                       # ITB inst hits
system.cpu.itb.stage2_mmu.stage2_tlb.inst_misses            0                       # ITB inst misses
system.cpu.itb.stage2_mmu.stage2_tlb.misses            0                       # DTB misses
system.cpu.itb.stage2_mmu.stage2_tlb.perms_faults            0                       # Number of TLB faults due to permissions restrictions
system.cpu.itb.stage2_mmu.stage2_tlb.prefetch_faults            0                       # Number of TLB faults due to prefetch
system.cpu.itb.stage2_mmu.stage2_tlb.read_accesses            0                       # DTB read accesses
system.cpu.itb.stage2_mmu.stage2_tlb.read_hits            0                       # DTB read hits
system.cpu.itb.stage2_mmu.stage2_tlb.read_misses            0                       # DTB read misses
system.cpu.itb.stage2_mmu.stage2_tlb.walker.walkRequestOrigin_Requested::Data            0                       # Table walker requests started/completed, data/inst
system.cpu.itb.stage2_mmu.stage2_tlb.walker.walkRequestOrigin_Requested::Inst            0                       # Table walker requests started/completed, data/inst
system.cpu.itb.stage2_mmu.stage2_tlb.walker.walkRequestOrigin_Requested::total            0                       # Table walker requests started/completed, data/inst
system.cpu.itb.stage2_mmu.stage2_tlb.walker.walkRequestOrigin_Completed::Data            0                       # Table walker requests started/completed, data/inst
system.cpu.itb.stage2_mmu.stage2_tlb.walker.walkRequestOrigin_Completed::Inst            0                       # Table walker requests started/completed, data/inst
system.cpu.itb.stage2_mmu.stage2_tlb.walker.walkRequestOrigin_Completed::total            0                       # Table walker requests started/completed, data/inst
system.cpu.itb.stage2_mmu.stage2_tlb.walker.walkRequestOrigin::total            0                       # Table walker requests started/completed, data/inst
system.cpu.itb.stage2_mmu.stage2_tlb.walker.walks            0                       # Table walker walks requested
system.cpu.itb.stage2_mmu.stage2_tlb.write_accesses            0                       # DTB write accesses
system.cpu.itb.stage2_mmu.stage2_tlb.write_hits            0                       # DTB write hits
system.cpu.itb.stage2_mmu.stage2_tlb.write_misses            0                       # DTB write misses
system.cpu.itb.walker.walkRequestOrigin_Requested::Data            0                       # Table walker requests started/completed, data/inst
system.cpu.itb.walker.walkRequestOrigin_Requested::Inst            0                       # Table walker requests started/completed, data/inst
system.cpu.itb.walker.walkRequestOrigin_Requested::total            0                       # Table walker requests started/completed, data/inst
system.cpu.itb.walker.walkRequestOrigin_Completed::Data            0                       # Table walker requests started/completed, data/inst
system.cpu.itb.walker.walkRequestOrigin_Completed::Inst            0                       # Table walker requests started/completed, data/inst
system.cpu.itb.walker.walkRequestOrigin_Completed::total            0                       # Table walker requests started/completed, data/inst
system.cpu.itb.walker.walkRequestOrigin::total            0                       # Table walker requests started/completed, data/inst
system.cpu.itb.walker.walks                         0                       # Table walker walks requested
system.cpu.itb.write_accesses                       0                       # DTB write accesses
system.cpu.itb.write_hits                           0                       # DTB write hits
system.cpu.itb.write_misses                         0                       # DTB write misses
system.cpu.memDep0.conflictingLoads               140                       # Number of conflicting loads.
system.cpu.memDep0.conflictingStores              673                       # Number of conflicting stores.
system.cpu.memDep0.insertedLoads                58797                       # Number of loads inserted to the mem dependence unit.
system.cpu.memDep0.insertedStores               56532                       # Number of stores inserted to the mem dependence unit.
system.cpu.misc_regfile_reads                  491683                       # number of misc regfile reads
system.cpu.misc_regfile_writes                    288                       # number of misc regfile writes
system.cpu.numCycles                           569752                       # number of cpu cycles simulated
system.cpu.numWorkItemsCompleted                    0                       # number of work items this cpu completed
system.cpu.numWorkItemsStarted                      0                       # number of work items this cpu started
system.cpu.rename.BlockCycles                   36305                       # Number of cycles rename is blocking
system.cpu.rename.CommittedMaps                292740                       # Number of HB maps that are committed
system.cpu.rename.IQFullEvents                    575                       # Number of times rename has blocked due to IQ full
system.cpu.rename.IdleCycles                    33805                       # Number of cycles rename is idle
system.cpu.rename.LQFullEvents                  29461                       # Number of times rename has blocked due to LQ full
system.cpu.rename.RenameLookups                674015                       # Number of register rename lookups that rename has made
system.cpu.rename.RenamedInsts                 324706                       # Number of instructions processed by rename
system.cpu.rename.RenamedOperands              376595                       # Number of destination operands rename has renamed
system.cpu.rename.RunCycles                     44463                       # Number of cycles rename is running
system.cpu.rename.SQFullEvents                 354555                       # Number of times rename has blocked due to SQ full
system.cpu.rename.SquashCycles                   1377                       # Number of cycles rename is squashing
system.cpu.rename.UnblockCycles                386243                       # Number of cycles rename is unblocking
system.cpu.rename.UndoneMaps                    83793                       # Number of HB maps that are undone due to squashing
system.cpu.rename.int_rename_lookups           356919                       # Number of integer rename lookups
system.cpu.rename.serializeStallCycles           7997                       # count of cycles rename stalled for serializing inst
system.cpu.rename.serializingInsts                329                       # count of serializing insts renamed
system.cpu.rename.skidInsts                     99876                       # count of insts added to the skid buffer
system.cpu.rename.tempSerializingInsts            148                       # count of temporary serializing insts renamed
system.cpu.rename.vec_rename_lookups              674                       # Number of vector rename lookups
system.cpu.rob.rob_reads                       801485                       # The number of ROB reads
system.cpu.rob.rob_writes                      647635                       # The number of ROB writes
system.cpu.timesIdled                             598                       # Number of times that the entire CPU went into an idle state and unscheduled itself
system.cpu.vec_regfile_reads                      582                       # number of vector regfile reads
system.cpu.vec_regfile_writes                     187                       # number of vector regfile writes
system.cpu.workload.numSyscalls                    25                       # Number of system calls
system.membus.snoop_filter.hit_multi_requests            0                       # Number of requests hitting in the snoop filter with multiple (>1) holders of the requested data.
system.membus.snoop_filter.hit_multi_snoops            0                       # Number of snoops hitting in the snoop filter with multiple (>1) holders of the requested data.
system.membus.snoop_filter.hit_single_requests            2                       # Number of requests hitting in the snoop filter with a single holder of the requested data.
system.membus.snoop_filter.hit_single_snoops            0                       # Number of snoops hitting in the snoop filter with a single holder of the requested data.
system.membus.snoop_filter.tot_requests         25739                       # Total number of requests made to the snoop filter.
system.membus.snoop_filter.tot_snoops               0                       # Total number of snoops made to the snoop filter.
system.tol2bus.snoop_filter.hit_multi_requests            1                       # Number of requests hitting in the snoop filter with multiple (>1) holders of the requested data.
system.tol2bus.snoop_filter.hit_multi_snoops            0                       # Number of snoops hitting in the snoop filter with multiple (>1) holders of the requested data.
system.tol2bus.snoop_filter.hit_single_requests        26150                       # Number of requests hitting in the snoop filter with a single holder of the requested data.
system.tol2bus.snoop_filter.hit_single_snoops            1                       # Number of snoops hitting in the snoop filter with a single holder of the requested data.
system.tol2bus.snoop_filter.tot_requests        53580                       # Total number of requests made to the snoop filter.
system.tol2bus.snoop_filter.tot_snoops              1                       # Total number of snoops made to the snoop filter.
system.membus.trans_dist::ReadResp               1011                       # Transaction distribution
system.membus.trans_dist::CleanEvict                2                       # Transaction distribution
system.membus.trans_dist::ReadExReq               146                       # Transaction distribution
system.membus.trans_dist::ReadExResp              146                       # Transaction distribution
system.membus.trans_dist::ReadSharedReq          1011                       # Transaction distribution
system.membus.trans_dist::InvalidateReq         24580                       # Transaction distribution
system.membus.pkt_count_system.l2.mem_side::system.mem_ctrls.port        26896                       # Packet count per connected master and slave (bytes)
system.membus.pkt_count::total                  26896                       # Packet count per connected master and slave (bytes)
system.membus.pkt_size_system.l2.mem_side::system.mem_ctrls.port        74048                       # Cumulative packet size per connected master and slave (bytes)
system.membus.pkt_size::total                   74048                       # Cumulative packet size per connected master and slave (bytes)
system.membus.snoops                                0                       # Total snoops (count)
system.membus.snoopTraffic                          0                       # Total snoop traffic (bytes)
system.membus.snoop_fanout::samples             25737                       # Request fanout histogram
system.membus.snoop_fanout::mean                    0                       # Request fanout histogram
system.membus.snoop_fanout::stdev                   0                       # Request fanout histogram
system.membus.snoop_fanout::underflows              0      0.00%      0.00% # Request fanout histogram
system.membus.snoop_fanout::0                   25737    100.00%    100.00% # Request fanout histogram
system.membus.snoop_fanout::1                       0      0.00%    100.00% # Request fanout histogram
system.membus.snoop_fanout::overflows               0      0.00%    100.00% # Request fanout histogram
system.membus.snoop_fanout::min_value               0                       # Request fanout histogram
system.membus.snoop_fanout::max_value               0                       # Request fanout histogram
system.membus.snoop_fanout::total               25737                       # Request fanout histogram
system.membus.reqLayer0.occupancy            27554500                       # Layer occupancy (ticks)
system.membus.reqLayer0.utilization               9.7                       # Layer utilization (%)
system.membus.respLayer1.occupancy            6127750                       # Layer occupancy (ticks)
system.membus.respLayer1.utilization              2.2                       # Layer utilization (%)
system.membus.power_state.pwrStateResidencyTicks::UNDEFINED    284875500                       # Cumulative time (in ticks) in various power states
system.tol2bus.trans_dist::ReadResp              1279                       # Transaction distribution
system.tol2bus.trans_dist::WritebackDirty        25358                       # Transaction distribution
system.tol2bus.trans_dist::WritebackClean          698                       # Transaction distribution
system.tol2bus.trans_dist::CleanEvict              97                       # Transaction distribution
system.tol2bus.trans_dist::ReadExReq             1571                       # Transaction distribution
system.tol2bus.trans_dist::ReadExResp            1571                       # Transaction distribution
system.tol2bus.trans_dist::ReadCleanReq           954                       # Transaction distribution
system.tol2bus.trans_dist::ReadSharedReq          325                       # Transaction distribution
system.tol2bus.trans_dist::InvalidateReq        24580                       # Transaction distribution
system.tol2bus.trans_dist::InvalidateResp        24580                       # Transaction distribution
system.tol2bus.pkt_count_system.cpu.icache.mem_side::system.l2.cpu_side         2606                       # Packet count per connected master and slave (bytes)
system.tol2bus.pkt_count_system.cpu.dcache.mem_side::system.l2.cpu_side        78404                       # Packet count per connected master and slave (bytes)
system.tol2bus.pkt_count::total                 81010                       # Packet count per connected master and slave (bytes)
system.tol2bus.pkt_size_system.cpu.icache.mem_side::system.l2.cpu_side       105728                       # Cumulative packet size per connected master and slave (bytes)
system.tol2bus.pkt_size_system.cpu.dcache.mem_side::system.l2.cpu_side      1744256                       # Cumulative packet size per connected master and slave (bytes)
system.tol2bus.pkt_size::total                1849984                       # Cumulative packet size per connected master and slave (bytes)
system.tol2bus.snoops                               3                       # Total snoops (count)
system.tol2bus.snoopTraffic                         0                       # Total snoop traffic (bytes)
system.tol2bus.snoop_fanout::samples            27433                       # Request fanout histogram
system.tol2bus.snoop_fanout::mean            0.000073                       # Request fanout histogram
system.tol2bus.snoop_fanout::stdev           0.008538                       # Request fanout histogram
system.tol2bus.snoop_fanout::underflows             0      0.00%      0.00% # Request fanout histogram
system.tol2bus.snoop_fanout::0                  27431     99.99%     99.99% # Request fanout histogram
system.tol2bus.snoop_fanout::1                      2      0.01%    100.00% # Request fanout histogram
system.tol2bus.snoop_fanout::2                      0      0.00%    100.00% # Request fanout histogram
system.tol2bus.snoop_fanout::overflows              0      0.00%    100.00% # Request fanout histogram
system.tol2bus.snoop_fanout::min_value              0                       # Request fanout histogram
system.tol2bus.snoop_fanout::max_value              1                       # Request fanout histogram
system.tol2bus.snoop_fanout::total              27433                       # Request fanout histogram
system.tol2bus.reqLayer0.occupancy           52846000                       # Layer occupancy (ticks)
system.tol2bus.reqLayer0.utilization             18.6                       # Layer utilization (%)
system.tol2bus.respLayer1.occupancy          15135497                       # Layer occupancy (ticks)
system.tol2bus.respLayer1.utilization             5.3                       # Layer utilization (%)
system.tol2bus.respLayer0.occupancy           1431998                       # Layer occupancy (ticks)
system.tol2bus.respLayer0.utilization             0.5                       # Layer utilization (%)
system.tol2bus.power_state.pwrStateResidencyTicks::UNDEFINED    284875500                       # Cumulative time (in ticks) in various power states
system.voltage_domain.voltage                       1                       # Voltage in Volts
system.clk_domain.clock                          1000                       # Clock period in ticks
system.l2.demand_hits::.cpu.inst                  242                       # number of demand (read+write) hits
system.l2.demand_hits::.cpu.data                 1451                       # number of demand (read+write) hits
system.l2.demand_hits::total                     1693                       # number of demand (read+write) hits
system.l2.overall_hits::.cpu.inst                 242                       # number of overall hits
system.l2.overall_hits::.cpu.data                1451                       # number of overall hits
system.l2.overall_hits::total                    1693                       # number of overall hits
system.l2.demand_misses::.cpu.inst                712                       # number of demand (read+write) misses
system.l2.demand_misses::.cpu.data                445                       # number of demand (read+write) misses
system.l2.demand_misses::total                   1157                       # number of demand (read+write) misses
system.l2.overall_misses::.cpu.inst               712                       # number of overall misses
system.l2.overall_misses::.cpu.data               445                       # number of overall misses
system.l2.overall_misses::total                  1157                       # number of overall misses
system.l2.demand_miss_latency::.cpu.inst     56512500                       # number of demand (read+write) miss cycles
system.l2.demand_miss_latency::.cpu.data     36414000                       # number of demand (read+write) miss cycles
system.l2.demand_miss_latency::total         92926500                       # number of demand (read+write) miss cycles
system.l2.overall_miss_latency::.cpu.inst     56512500                       # number of overall miss cycles
system.l2.overall_miss_latency::.cpu.data     36414000                       # number of overall miss cycles
system.l2.overall_miss_latency::total        92926500                       # number of overall miss cycles
system.l2.demand_accesses::.cpu.inst              954                       # number of demand (read+write) accesses
system.l2.demand_accesses::.cpu.data             1896                       # number of demand (read+write) accesses
system.l2.demand_accesses::total                 2850                       # number of demand (read+write) accesses
system.l2.overall_accesses::.cpu.inst             954                       # number of overall (read+write) accesses
system.l2.overall_accesses::.cpu.data            1896                       # number of overall (read+write) accesses
system.l2.overall_accesses::total                2850                       # number of overall (read+write) accesses
system.l2.demand_miss_rate::.cpu.inst        0.746331                       # miss rate for demand accesses
system.l2.demand_miss_rate::.cpu.data        0.234705                       # miss rate for demand accesses
system.l2.demand_miss_rate::total            0.405965                       # miss rate for demand accesses
system.l2.overall_miss_rate::.cpu.inst       0.746331                       # miss rate for overall accesses
system.l2.overall_miss_rate::.cpu.data       0.234705                       # miss rate for overall accesses
system.l2.overall_miss_rate::total           0.405965                       # miss rate for overall accesses
system.l2.demand_avg_miss_latency::.cpu.inst 79371.488764                       # average overall miss latency
system.l2.demand_avg_miss_latency::.cpu.data 81829.213483                       # average overall miss latency
system.l2.demand_avg_miss_latency::total 80316.767502                       # average overall miss latency
system.l2.overall_avg_miss_latency::.cpu.inst 79371.488764                       # average overall miss latency
system.l2.overall_avg_miss_latency::.cpu.data 81829.213483                       # average overall miss latency
system.l2.overall_avg_miss_latency::total 80316.767502                       # average overall miss latency
system.l2.blocked_cycles::no_mshrs                  0                       # number of cycles access was blocked
system.l2.blocked_cycles::no_targets                0                       # number of cycles access was blocked
system.l2.blocked::no_mshrs                         0                       # number of cycles access was blocked
system.l2.blocked::no_targets                       0                       # number of cycles access was blocked
system.l2.avg_blocked_cycles::no_mshrs            nan                       # average number of cycles each access was blocked
system.l2.avg_blocked_cycles::no_targets          nan                       # average number of cycles each access was blocked
system.l2.demand_mshr_misses::.cpu.inst           712                       # number of demand (read+write) MSHR misses
system.l2.demand_mshr_misses::.cpu.data           445                       # number of demand (read+write) MSHR misses
system.l2.demand_mshr_misses::total              1157                       # number of demand (read+write) MSHR misses
system.l2.overall_mshr_misses::.cpu.inst          712                       # number of overall MSHR misses
system.l2.overall_mshr_misses::.cpu.data          445                       # number of overall MSHR misses
system.l2.overall_mshr_misses::total             1157                       # number of overall MSHR misses
system.l2.demand_mshr_miss_latency::.cpu.inst     49392500                       # number of demand (read+write) MSHR miss cycles
system.l2.demand_mshr_miss_latency::.cpu.data     31964000                       # number of demand (read+write) MSHR miss cycles
system.l2.demand_mshr_miss_latency::total     81356500                       # number of demand (read+write) MSHR miss cycles
system.l2.overall_mshr_miss_latency::.cpu.inst     49392500                       # number of overall MSHR miss cycles
system.l2.overall_mshr_miss_latency::.cpu.data     31964000                       # number of overall MSHR miss cycles
system.l2.overall_mshr_miss_latency::total     81356500                       # number of overall MSHR miss cycles
system.l2.demand_mshr_miss_rate::.cpu.inst     0.746331                       # mshr miss rate for demand accesses
system.l2.demand_mshr_miss_rate::.cpu.data     0.234705                       # mshr miss rate for demand accesses
system.l2.demand_mshr_miss_rate::total       0.405965                       # mshr miss rate for demand accesses
system.l2.overall_mshr_miss_rate::.cpu.inst     0.746331                       # mshr miss rate for overall accesses
system.l2.overall_mshr_miss_rate::.cpu.data     0.234705                       # mshr miss rate for overall accesses
system.l2.overall_mshr_miss_rate::total      0.405965                       # mshr miss rate for overall accesses
system.l2.demand_avg_mshr_miss_latency::.cpu.inst 69371.488764                       # average overall mshr miss latency
system.l2.demand_avg_mshr_miss_latency::.cpu.data 71829.213483                       # average overall mshr miss latency
system.l2.demand_avg_mshr_miss_latency::total 70316.767502                       # average overall mshr miss latency
system.l2.overall_avg_mshr_miss_latency::.cpu.inst 69371.488764                       # average overall mshr miss latency
system.l2.overall_avg_mshr_miss_latency::.cpu.data 71829.213483                       # average overall mshr miss latency
system.l2.overall_avg_mshr_miss_latency::total 70316.767502                       # average overall mshr miss latency
system.l2.replacements                              3                       # number of replacements
system.l2.WritebackDirty_hits::.writebacks        25358                       # number of WritebackDirty hits
system.l2.WritebackDirty_hits::total            25358                       # number of WritebackDirty hits
system.l2.WritebackDirty_accesses::.writebacks        25358                       # number of WritebackDirty accesses(hits+misses)
system.l2.WritebackDirty_accesses::total        25358                       # number of WritebackDirty accesses(hits+misses)
system.l2.WritebackClean_hits::.writebacks          697                       # number of WritebackClean hits
system.l2.WritebackClean_hits::total              697                       # number of WritebackClean hits
system.l2.WritebackClean_accesses::.writebacks          697                       # number of WritebackClean accesses(hits+misses)
system.l2.WritebackClean_accesses::total          697                       # number of WritebackClean accesses(hits+misses)
system.l2.ReadExReq_hits::.cpu.data              1425                       # number of ReadExReq hits
system.l2.ReadExReq_hits::total                  1425                       # number of ReadExReq hits
system.l2.ReadExReq_misses::.cpu.data             146                       # number of ReadExReq misses
system.l2.ReadExReq_misses::total                 146                       # number of ReadExReq misses
system.l2.ReadExReq_miss_latency::.cpu.data     12095500                       # number of ReadExReq miss cycles
system.l2.ReadExReq_miss_latency::total      12095500                       # number of ReadExReq miss cycles
system.l2.ReadExReq_accesses::.cpu.data          1571                       # number of ReadExReq accesses(hits+misses)
system.l2.ReadExReq_accesses::total              1571                       # number of ReadExReq accesses(hits+misses)
system.l2.ReadExReq_miss_rate::.cpu.data     0.092934                       # miss rate for ReadExReq accesses
system.l2.ReadExReq_miss_rate::total         0.092934                       # miss rate for ReadExReq accesses
system.l2.ReadExReq_avg_miss_latency::.cpu.data 82845.890411                       # average ReadExReq miss latency
system.l2.ReadExReq_avg_miss_latency::total 82845.890411                       # average ReadExReq miss latency
system.l2.ReadExReq_mshr_misses::.cpu.data          146                       # number of ReadExReq MSHR misses
system.l2.ReadExReq_mshr_misses::total            146                       # number of ReadExReq MSHR misses
system.l2.ReadExReq_mshr_miss_latency::.cpu.data     10635500                       # number of ReadExReq MSHR miss cycles
system.l2.ReadExReq_mshr_miss_latency::total     10635500                       # number of ReadExReq MSHR miss cycles
system.l2.ReadExReq_mshr_miss_rate::.cpu.data     0.092934                       # mshr miss rate for ReadExReq accesses
system.l2.ReadExReq_mshr_miss_rate::total     0.092934                       # mshr miss rate for ReadExReq accesses
system.l2.ReadExReq_avg_mshr_miss_latency::.cpu.data 72845.890411                       # average ReadExReq mshr miss latency
system.l2.ReadExReq_avg_mshr_miss_latency::total 72845.890411                       # average ReadExReq mshr miss latency
system.l2.ReadCleanReq_hits::.cpu.inst            242                       # number of ReadCleanReq hits
system.l2.ReadCleanReq_hits::total                242                       # number of ReadCleanReq hits
system.l2.ReadCleanReq_misses::.cpu.inst          712                       # number of ReadCleanReq misses
system.l2.ReadCleanReq_misses::total              712                       # number of ReadCleanReq misses
system.l2.ReadCleanReq_miss_latency::.cpu.inst     56512500                       # number of ReadCleanReq miss cycles
system.l2.ReadCleanReq_miss_latency::total     56512500                       # number of ReadCleanReq miss cycles
system.l2.ReadCleanReq_accesses::.cpu.inst          954                       # number of ReadCleanReq accesses(hits+misses)
system.l2.ReadCleanReq_accesses::total            954                       # number of ReadCleanReq accesses(hits+misses)
system.l2.ReadCleanReq_miss_rate::.cpu.inst     0.746331                       # miss rate for ReadCleanReq accesses
system.l2.ReadCleanReq_miss_rate::total      0.746331                       # miss rate for ReadCleanReq accesses
system.l2.ReadCleanReq_avg_miss_latency::.cpu.inst 79371.488764                       # average ReadCleanReq miss latency
system.l2.ReadCleanReq_avg_miss_latency::total 79371.488764                       # average ReadCleanReq miss latency
system.l2.ReadCleanReq_mshr_misses::.cpu.inst          712                       # number of ReadCleanReq MSHR misses
system.l2.ReadCleanReq_mshr_misses::total          712                       # number of ReadCleanReq MSHR misses
system.l2.ReadCleanReq_mshr_miss_latency::.cpu.inst     49392500                       # number of ReadCleanReq MSHR miss cycles
system.l2.ReadCleanReq_mshr_miss_latency::total     49392500                       # number of ReadCleanReq MSHR miss cycles
system.l2.ReadCleanReq_mshr_miss_rate::.cpu.inst     0.746331                       # mshr miss rate for ReadCleanReq accesses
system.l2.ReadCleanReq_mshr_miss_rate::total     0.746331                       # mshr miss rate for ReadCleanReq accesses
system.l2.ReadCleanReq_avg_mshr_miss_latency::.cpu.inst 69371.488764                       # average ReadCleanReq mshr miss latency
system.l2.ReadCleanReq_avg_mshr_miss_latency::total 69371.488764                       # average ReadCleanReq mshr miss latency
[...]
system.cpu.dcache.overall_miss_latency::.cpu.data   1050743278                       # number of overall miss cycles
system.cpu.dcache.overall_miss_latency::total   1050743278                       # number of overall miss cycles
system.cpu.dcache.demand_accesses::.cpu.data        99383                       # number of demand (read+write) accesses
system.cpu.dcache.demand_accesses::total        99383                       # number of demand (read+write) accesses
system.cpu.dcache.overall_accesses::.cpu.data        99393                       # number of overall (read+write) accesses
system.cpu.dcache.overall_accesses::total        99393                       # number of overall (read+write) accesses
system.cpu.dcache.demand_miss_rate::.cpu.data     0.330861                       # miss rate for demand accesses
system.cpu.dcache.demand_miss_rate::total     0.330861                       # miss rate for demand accesses
system.cpu.dcache.overall_miss_rate::.cpu.data     0.330848                       # miss rate for overall accesses
system.cpu.dcache.overall_miss_rate::total     0.330848                       # miss rate for overall accesses
system.cpu.dcache.demand_avg_miss_latency::.cpu.data 31954.968615                       # average overall miss latency
system.cpu.dcache.demand_avg_miss_latency::total 31954.968615                       # average overall miss latency
system.cpu.dcache.overall_avg_miss_latency::.cpu.data 31953.025119                       # average overall miss latency
system.cpu.dcache.overall_avg_miss_latency::total 31953.025119                       # average overall miss latency
system.cpu.dcache.blocked_cycles::no_mshrs       378605                       # number of cycles access was blocked
system.cpu.dcache.blocked_cycles::no_targets           61                       # number of cycles access was blocked
system.cpu.dcache.blocked::no_mshrs             24314                       # number of cycles access was blocked
system.cpu.dcache.blocked::no_targets              15                       # number of cycles access was blocked
system.cpu.dcache.avg_blocked_cycles::no_mshrs    15.571481                       # average number of cycles each access was blocked
system.cpu.dcache.avg_blocked_cycles::no_targets     4.066667                       # average number of cycles each access was blocked
system.cpu.dcache.writebacks::.writebacks        25358                       # number of writebacks
system.cpu.dcache.writebacks::total             25358                       # number of writebacks
system.cpu.dcache.demand_mshr_hits::.cpu.data         6408                       # number of demand (read+write) MSHR hits
system.cpu.dcache.demand_mshr_hits::total         6408                       # number of demand (read+write) MSHR hits
system.cpu.dcache.overall_mshr_hits::.cpu.data         6408                       # number of overall MSHR hits
system.cpu.dcache.overall_mshr_hits::total         6408                       # number of overall MSHR hits
system.cpu.dcache.demand_mshr_misses::.cpu.data        26474                       # number of demand (read+write) MSHR misses
system.cpu.dcache.demand_mshr_misses::total        26474                       # number of demand (read+write) MSHR misses
system.cpu.dcache.overall_mshr_misses::.cpu.data        26476                       # number of overall MSHR misses
system.cpu.dcache.overall_mshr_misses::total        26476                       # number of overall MSHR misses
system.cpu.dcache.demand_mshr_miss_latency::.cpu.data    839862821                       # number of demand (read+write) MSHR miss cycles
system.cpu.dcache.demand_mshr_miss_latency::total    839862821                       # number of demand (read+write) MSHR miss cycles
system.cpu.dcache.overall_mshr_miss_latency::.cpu.data    840047321                       # number of overall MSHR miss cycles
system.cpu.dcache.overall_mshr_miss_latency::total    840047321                       # number of overall MSHR miss cycles
system.cpu.dcache.demand_mshr_miss_rate::.cpu.data     0.266384                       # mshr miss rate for demand accesses
system.cpu.dcache.demand_mshr_miss_rate::total     0.266384                       # mshr miss rate for demand accesses
system.cpu.dcache.overall_mshr_miss_rate::.cpu.data     0.266377                       # mshr miss rate for overall accesses
system.cpu.dcache.overall_mshr_miss_rate::total     0.266377                       # mshr miss rate for overall accesses
system.cpu.dcache.demand_avg_mshr_miss_latency::.cpu.data 31724.062136                       # average overall mshr miss latency
system.cpu.dcache.demand_avg_mshr_miss_latency::total 31724.062136                       # average overall mshr miss latency
system.cpu.dcache.overall_avg_mshr_miss_latency::.cpu.data 31728.634273                       # average overall mshr miss latency
system.cpu.dcache.overall_avg_mshr_miss_latency::total 31728.634273                       # average overall mshr miss latency
system.cpu.dcache.replacements                  25452                       # number of replacements
system.cpu.dcache.ReadReq_hits::.cpu.data        55545                       # number of ReadReq hits
system.cpu.dcache.ReadReq_hits::total           55545                       # number of ReadReq hits
system.cpu.dcache.ReadReq_misses::.cpu.data         1937                       # number of ReadReq misses
system.cpu.dcache.ReadReq_misses::total          1937                       # number of ReadReq misses
system.cpu.dcache.ReadReq_miss_latency::.cpu.data    142649500                       # number of ReadReq miss cycles
system.cpu.dcache.ReadReq_miss_latency::total    142649500                       # number of ReadReq miss cycles
system.cpu.dcache.ReadReq_accesses::.cpu.data        57482                       # number of ReadReq accesses(hits+misses)
system.cpu.dcache.ReadReq_accesses::total        57482                       # number of ReadReq accesses(hits+misses)
system.cpu.dcache.ReadReq_miss_rate::.cpu.data     0.033698                       # miss rate for ReadReq accesses
system.cpu.dcache.ReadReq_miss_rate::total     0.033698                       # miss rate for ReadReq accesses
system.cpu.dcache.ReadReq_avg_miss_latency::.cpu.data 73644.553433                       # average ReadReq miss latency
system.cpu.dcache.ReadReq_avg_miss_latency::total 73644.553433                       # average ReadReq miss latency
system.cpu.dcache.ReadReq_mshr_hits::.cpu.data         1614                       # number of ReadReq MSHR hits
system.cpu.dcache.ReadReq_mshr_hits::total         1614                       # number of ReadReq MSHR hits
system.cpu.dcache.ReadReq_mshr_misses::.cpu.data          323                       # number of ReadReq MSHR misses
system.cpu.dcache.ReadReq_mshr_misses::total          323                       # number of ReadReq MSHR misses
system.cpu.dcache.ReadReq_mshr_miss_latency::.cpu.data     24816000                       # number of ReadReq MSHR miss cycles
system.cpu.dcache.ReadReq_mshr_miss_latency::total     24816000                       # number of ReadReq MSHR miss cycles
system.cpu.dcache.ReadReq_mshr_miss_rate::.cpu.data     0.005619                       # mshr miss rate for ReadReq accesses
system.cpu.dcache.ReadReq_mshr_miss_rate::total     0.005619                       # mshr miss rate for ReadReq accesses
system.cpu.dcache.ReadReq_avg_mshr_miss_latency::.cpu.data 76829.721362                       # average ReadReq mshr miss latency
system.cpu.dcache.ReadReq_avg_mshr_miss_latency::total 76829.721362                       # average ReadReq mshr miss latency
system.cpu.dcache.WriteReq_hits::.cpu.data        10956                       # number of WriteReq hits
system.cpu.dcache.WriteReq_hits::total          10956                       # number of WriteReq hits
system.cpu.dcache.WriteReq_misses::.cpu.data         6368                       # number of WriteReq misses
system.cpu.dcache.WriteReq_misses::total         6368                       # number of WriteReq misses
system.cpu.dcache.WriteReq_miss_latency::.cpu.data     99587723                       # number of WriteReq miss cycles
system.cpu.dcache.WriteReq_miss_latency::total     99587723                       # number of WriteReq miss cycles
system.cpu.dcache.WriteReq_accesses::.cpu.data        17324                       # number of WriteReq accesses(hits+misses)
system.cpu.dcache.WriteReq_accesses::total        17324                       # number of WriteReq accesses(hits+misses)
system.cpu.dcache.WriteReq_miss_rate::.cpu.data     0.367583                       # miss rate for WriteReq accesses
system.cpu.dcache.WriteReq_miss_rate::total     0.367583                       # miss rate for WriteReq accesses
system.cpu.dcache.WriteReq_avg_miss_latency::.cpu.data 15638.775597                       # average WriteReq miss latency
system.cpu.dcache.WriteReq_avg_miss_latency::total 15638.775597                       # average WriteReq miss latency
system.cpu.dcache.WriteReq_mshr_hits::.cpu.data         4794                       # number of WriteReq MSHR hits
system.cpu.dcache.WriteReq_mshr_hits::total         4794                       # number of WriteReq MSHR hits
system.cpu.dcache.WriteReq_mshr_misses::.cpu.data         1574                       # number of WriteReq MSHR misses
system.cpu.dcache.WriteReq_mshr_misses::total         1574                       # number of WriteReq MSHR misses
system.cpu.dcache.WriteReq_mshr_miss_latency::.cpu.data     31117766                       # number of WriteReq MSHR miss cycles
system.cpu.dcache.WriteReq_mshr_miss_latency::total     31117766                       # number of WriteReq MSHR miss cycles
system.cpu.dcache.WriteReq_mshr_miss_rate::.cpu.data     0.090857                       # mshr miss rate for WriteReq accesses
system.cpu.dcache.WriteReq_mshr_miss_rate::total     0.090857                       # mshr miss rate for WriteReq accesses
system.cpu.dcache.WriteReq_avg_mshr_miss_latency::.cpu.data 19769.864041                       # average WriteReq mshr miss latency
system.cpu.dcache.WriteReq_avg_mshr_miss_latency::total 19769.864041                       # average WriteReq mshr miss latency
system.cpu.dcache.SoftPFReq_hits::.cpu.data            8                       # number of SoftPFReq hits
system.cpu.dcache.SoftPFReq_hits::total             8                       # number of SoftPFReq hits
system.cpu.dcache.SoftPFReq_misses::.cpu.data            2                       # number of SoftPFReq misses
system.cpu.dcache.SoftPFReq_misses::total            2                       # number of SoftPFReq misses
system.cpu.dcache.SoftPFReq_accesses::.cpu.data           10                       # number of SoftPFReq accesses(hits+misses)
system.cpu.dcache.SoftPFReq_accesses::total           10                       # number of SoftPFReq accesses(hits+misses)
system.cpu.dcache.SoftPFReq_miss_rate::.cpu.data     0.200000                       # miss rate for SoftPFReq accesses
system.cpu.dcache.SoftPFReq_miss_rate::total     0.200000                       # miss rate for SoftPFReq accesses
system.cpu.dcache.SoftPFReq_mshr_misses::.cpu.data            2                       # number of SoftPFReq MSHR misses
system.cpu.dcache.SoftPFReq_mshr_misses::total            2                       # number of SoftPFReq MSHR misses
system.cpu.dcache.SoftPFReq_mshr_miss_latency::.cpu.data       184500                       # number of SoftPFReq MSHR miss cycles
system.cpu.dcache.SoftPFReq_mshr_miss_latency::total       184500                       # number of SoftPFReq MSHR miss cycles
system.cpu.dcache.SoftPFReq_mshr_miss_rate::.cpu.data     0.200000                       # mshr miss rate for SoftPFReq accesses
system.cpu.dcache.SoftPFReq_mshr_miss_rate::total     0.200000                       # mshr miss rate for SoftPFReq accesses
system.cpu.dcache.SoftPFReq_avg_mshr_miss_latency::.cpu.data        92250                       # average SoftPFReq mshr miss latency
system.cpu.dcache.SoftPFReq_avg_mshr_miss_latency::total        92250                       # average SoftPFReq mshr miss latency
system.cpu.dcache.WriteLineReq_misses::.cpu.data        24577                       # number of WriteLineReq misses
system.cpu.dcache.WriteLineReq_misses::total        24577                       # number of WriteLineReq misses
system.cpu.dcache.WriteLineReq_miss_latency::.cpu.data    808506055                       # number of WriteLineReq miss cycles
system.cpu.dcache.WriteLineReq_miss_latency::total    808506055                       # number of WriteLineReq miss cycles
system.cpu.dcache.WriteLineReq_accesses::.cpu.data        24577                       # number of WriteLineReq accesses(hits+misses)
system.cpu.dcache.WriteLineReq_accesses::total        24577                       # number of WriteLineReq accesses(hits+misses)
system.cpu.dcache.WriteLineReq_miss_rate::.cpu.data            1                       # miss rate for WriteLineReq accesses
system.cpu.dcache.WriteLineReq_miss_rate::total            1                       # miss rate for WriteLineReq accesses
system.cpu.dcache.WriteLineReq_avg_miss_latency::.cpu.data 32896.857021                       # average WriteLineReq miss latency
system.cpu.dcache.WriteLineReq_avg_miss_latency::total 32896.857021                       # average WriteLineReq miss latency
system.cpu.dcache.WriteLineReq_mshr_misses::.cpu.data        24577                       # number of WriteLineReq MSHR misses
system.cpu.dcache.WriteLineReq_mshr_misses::total        24577                       # number of WriteLineReq MSHR misses
system.cpu.dcache.WriteLineReq_mshr_miss_latency::.cpu.data    783929055                       # number of WriteLineReq MSHR miss cycles
system.cpu.dcache.WriteLineReq_mshr_miss_latency::total    783929055                       # number of WriteLineReq MSHR miss cycles
system.cpu.dcache.WriteLineReq_mshr_miss_rate::.cpu.data            1                       # mshr miss rate for WriteLineReq accesses
system.cpu.dcache.WriteLineReq_mshr_miss_rate::total            1                       # mshr miss rate for WriteLineReq accesses
system.cpu.dcache.WriteLineReq_avg_mshr_miss_latency::.cpu.data 31896.857021                       # average WriteLineReq mshr miss latency
system.cpu.dcache.WriteLineReq_avg_mshr_miss_latency::total 31896.857021                       # average WriteLineReq mshr miss latency
system.cpu.dcache.LoadLockedReq_hits::.cpu.data           73                       # number of LoadLockedReq hits
system.cpu.dcache.LoadLockedReq_hits::total           73                       # number of LoadLockedReq hits
system.cpu.dcache.LoadLockedReq_misses::.cpu.data            2                       # number of LoadLockedReq misses
system.cpu.dcache.LoadLockedReq_misses::total            2                       # number of LoadLockedReq misses
system.cpu.dcache.LoadLockedReq_miss_latency::.cpu.data       138500                       # number of LoadLockedReq miss cycles
system.cpu.dcache.LoadLockedReq_miss_latency::total       138500                       # number of LoadLockedReq miss cycles
system.cpu.dcache.LoadLockedReq_accesses::.cpu.data           75                       # number of LoadLockedReq accesses(hits+misses)
system.cpu.dcache.LoadLockedReq_accesses::total           75                       # number of LoadLockedReq accesses(hits+misses)
system.cpu.dcache.LoadLockedReq_miss_rate::.cpu.data     0.026667                       # miss rate for LoadLockedReq accesses
system.cpu.dcache.LoadLockedReq_miss_rate::total     0.026667                       # miss rate for LoadLockedReq accesses
system.cpu.dcache.LoadLockedReq_avg_miss_latency::.cpu.data        69250                       # average LoadLockedReq miss latency
system.cpu.dcache.LoadLockedReq_avg_miss_latency::total        69250                       # average LoadLockedReq miss latency
system.cpu.dcache.LoadLockedReq_mshr_hits::.cpu.data            1                       # number of LoadLockedReq MSHR hits
system.cpu.dcache.LoadLockedReq_mshr_hits::total            1                       # number of LoadLockedReq MSHR hits
system.cpu.dcache.LoadLockedReq_mshr_misses::.cpu.data            1                       # number of LoadLockedReq MSHR misses
system.cpu.dcache.LoadLockedReq_mshr_misses::total            1                       # number of LoadLockedReq MSHR misses
system.cpu.dcache.LoadLockedReq_mshr_miss_latency::.cpu.data        99500                       # number of LoadLockedReq MSHR miss cycles
system.cpu.dcache.LoadLockedReq_mshr_miss_latency::total        99500                       # number of LoadLockedReq MSHR miss cycles
system.cpu.dcache.LoadLockedReq_mshr_miss_rate::.cpu.data     0.013333                       # mshr miss rate for LoadLockedReq accesses
system.cpu.dcache.LoadLockedReq_mshr_miss_rate::total     0.013333                       # mshr miss rate for LoadLockedReq accesses
system.cpu.dcache.LoadLockedReq_avg_mshr_miss_latency::.cpu.data        99500                       # average LoadLockedReq mshr miss latency
system.cpu.dcache.LoadLockedReq_avg_mshr_miss_latency::total        99500                       # average LoadLockedReq mshr miss latency
system.cpu.dcache.StoreCondReq_hits::.cpu.data           58                       # number of StoreCondReq hits
system.cpu.dcache.StoreCondReq_hits::total           58                       # number of StoreCondReq hits
system.cpu.dcache.StoreCondReq_accesses::.cpu.data           58                       # number of StoreCondReq accesses(hits+misses)
system.cpu.dcache.StoreCondReq_accesses::total           58                       # number of StoreCondReq accesses(hits+misses)
system.cpu.dcache.power_state.pwrStateResidencyTicks::UNDEFINED    284875500                       # Cumulative time (in ticks) in various power states
system.cpu.dcache.tags.tagsinuse           870.307077                       # Cycle average of tags in use
system.cpu.dcache.tags.total_refs               93116                       # Total number of references to valid blocks.
system.cpu.dcache.tags.sampled_refs             26476                       # Sample count of references to valid blocks.
system.cpu.dcache.tags.avg_refs              3.516997                       # Average number of references to valid blocks.
system.cpu.dcache.tags.warmup_cycle            176500                       # Cycle when the warmup percentage was hit.
system.cpu.dcache.tags.occ_blocks::.cpu.data   870.307077                       # Average occupied blocks per requestor
system.cpu.dcache.tags.occ_percent::.cpu.data     0.849909                       # Average percentage of cache occupancy
system.cpu.dcache.tags.occ_percent::total     0.849909                       # Average percentage of cache occupancy
system.cpu.dcache.tags.occ_task_id_blocks::1024         1024                       # Occupied blocks per task id
system.cpu.dcache.tags.age_task_id_blocks_1024::0          218                       # Occupied blocks per task id
system.cpu.dcache.tags.age_task_id_blocks_1024::1          806                       # Occupied blocks per task id
system.cpu.dcache.tags.occ_task_id_percent::1024            1                       # Percentage of cache occupancy per task id
system.cpu.dcache.tags.tag_accesses            225528                       # Number of tag accesses
system.cpu.dcache.tags.data_accesses           225528                       # Number of data accesses
system.cpu.dcache.tags.power_state.pwrStateResidencyTicks::UNDEFINED    284875500                       # Cumulative time (in ticks) in various power states
system.cpu.power_state.pwrStateResidencyTicks::ON    284875500                       # Cumulative time (in ticks) in various power states

---------- End Simulation Statistics   ----------
